
---------- Begin Simulation Statistics ----------
simSeconds                                   2.405060                       # Number of seconds simulated (Second)
simTicks                                 2405059745787                       # Number of ticks simulated (Tick)
finalTick                                115342285462462                       # Number of ticks from beginning of simulation (restored from checkpoints and never reset) (Tick)
simFreq                                  1000000000000                       # The number of ticks per simulated second ((Tick/Second))
hostSeconds                                  19930.25                       # Real time elapsed on the host (Second)
hostTickRate                                120673820                       # The number of ticks simulated per host second (ticks/s) ((Tick/Second))
hostMemory                                    6754396                       # Number of bytes of host memory used (Byte)
simInsts                                   1028641662                       # Number of instructions simulated (Count)
simOps                                     1931427866                       # Number of ops (including micro ops) simulated (Count)
hostInstRate                                    51612                       # Simulator instruction rate (inst/s) ((Count/Second))
hostOpRate                                      96909                       # Simulator op (including micro ops) rate (op/s) ((Count/Second))
board.cache_hierarchy.ruby_system.delayHistogram::bucket_size            4                       # delay histogram for all message (Unspecified)
board.cache_hierarchy.ruby_system.delayHistogram::max_bucket           39                       # delay histogram for all message (Unspecified)
board.cache_hierarchy.ruby_system.delayHistogram::samples   1024754382                       # delay histogram for all message (Unspecified)
board.cache_hierarchy.ruby_system.delayHistogram::mean     0.212718                       # delay histogram for all message (Unspecified)
board.cache_hierarchy.ruby_system.delayHistogram::stdev     1.288147                       # delay histogram for all message (Unspecified)
board.cache_hierarchy.ruby_system.delayHistogram |   997541195     97.34%     97.34% |       90463      0.01%     97.35% |    27100309      2.64%    100.00% |        4891      0.00%    100.00% |       17522      0.00%    100.00% |           1      0.00%    100.00% |           0      0.00%    100.00% |           0      0.00%    100.00% |           1      0.00%    100.00% |           0      0.00%    100.00% # delay histogram for all message (Unspecified)
board.cache_hierarchy.ruby_system.delayHistogram::total   1024754382                       # delay histogram for all message (Unspecified)
board.cache_hierarchy.ruby_system.m_outstandReqHistSeqr::bucket_size            1                       (Unspecified)
board.cache_hierarchy.ruby_system.m_outstandReqHistSeqr::max_bucket            9                       (Unspecified)
board.cache_hierarchy.ruby_system.m_outstandReqHistSeqr::samples   1852361938                       (Unspecified)
board.cache_hierarchy.ruby_system.m_outstandReqHistSeqr::mean     1.000079                       (Unspecified)
board.cache_hierarchy.ruby_system.m_outstandReqHistSeqr::gmean     1.000055                       (Unspecified)
board.cache_hierarchy.ruby_system.m_outstandReqHistSeqr::stdev     0.008896                       (Unspecified)
board.cache_hierarchy.ruby_system.m_outstandReqHistSeqr |           0      0.00%      0.00% |  1852215337     99.99%     99.99% |      146601      0.01%    100.00% |           0      0.00%    100.00% |           0      0.00%    100.00% |           0      0.00%    100.00% |           0      0.00%    100.00% |           0      0.00%    100.00% |           0      0.00%    100.00% |           0      0.00%    100.00% (Unspecified)
board.cache_hierarchy.ruby_system.m_outstandReqHistSeqr::total   1852361938                       (Unspecified)
board.cache_hierarchy.ruby_system.m_latencyHistSeqr::bucket_size          256                       (Unspecified)
board.cache_hierarchy.ruby_system.m_latencyHistSeqr::max_bucket         2559                       (Unspecified)
board.cache_hierarchy.ruby_system.m_latencyHistSeqr::samples   1852361938                       (Unspecified)
board.cache_hierarchy.ruby_system.m_latencyHistSeqr::mean     2.966682                       (Unspecified)
board.cache_hierarchy.ruby_system.m_latencyHistSeqr::gmean     1.470296                       (Unspecified)
board.cache_hierarchy.ruby_system.m_latencyHistSeqr::stdev     7.623128                       (Unspecified)
board.cache_hierarchy.ruby_system.m_latencyHistSeqr |  1852284433    100.00%    100.00% |       48598      0.00%    100.00% |        8805      0.00%    100.00% |        6340      0.00%    100.00% |       13475      0.00%    100.00% |         155      0.00%    100.00% |         129      0.00%    100.00% |           3      0.00%    100.00% |           0      0.00%    100.00% |           0      0.00%    100.00% (Unspecified)
board.cache_hierarchy.ruby_system.m_latencyHistSeqr::total   1852361938                       (Unspecified)
board.cache_hierarchy.ruby_system.m_hitLatencyHistSeqr::bucket_size            1                       (Unspecified)
board.cache_hierarchy.ruby_system.m_hitLatencyHistSeqr::max_bucket            9                       (Unspecified)
board.cache_hierarchy.ruby_system.m_hitLatencyHistSeqr::samples   1578195013                       (Unspecified)
board.cache_hierarchy.ruby_system.m_hitLatencyHistSeqr::mean            1                       (Unspecified)
board.cache_hierarchy.ruby_system.m_hitLatencyHistSeqr::gmean            1                       (Unspecified)
board.cache_hierarchy.ruby_system.m_hitLatencyHistSeqr |           0      0.00%      0.00% |  1578195013    100.00%    100.00% |           0      0.00%    100.00% |           0      0.00%    100.00% |           0      0.00%    100.00% |           0      0.00%    100.00% |           0      0.00%    100.00% |           0      0.00%    100.00% |           0      0.00%    100.00% |           0      0.00%    100.00% (Unspecified)
board.cache_hierarchy.ruby_system.m_hitLatencyHistSeqr::total   1578195013                       (Unspecified)
board.cache_hierarchy.ruby_system.m_missLatencyHistSeqr::bucket_size          256                       (Unspecified)
board.cache_hierarchy.ruby_system.m_missLatencyHistSeqr::max_bucket         2559                       (Unspecified)
board.cache_hierarchy.ruby_system.m_missLatencyHistSeqr::samples    274166925                       (Unspecified)
board.cache_hierarchy.ruby_system.m_missLatencyHistSeqr::mean    14.287552                       (Unspecified)
board.cache_hierarchy.ruby_system.m_missLatencyHistSeqr::gmean    13.522012                       (Unspecified)
board.cache_hierarchy.ruby_system.m_missLatencyHistSeqr::stdev    15.562702                       (Unspecified)
board.cache_hierarchy.ruby_system.m_missLatencyHistSeqr |   274089420     99.97%     99.97% |       48598      0.02%     99.99% |        8805      0.00%     99.99% |        6340      0.00%     99.99% |       13475      0.00%    100.00% |         155      0.00%    100.00% |         129      0.00%    100.00% |           3      0.00%    100.00% |           0      0.00%    100.00% |           0      0.00%    100.00% (Unspecified)
board.cache_hierarchy.ruby_system.m_missLatencyHistSeqr::total    274166925                       (Unspecified)
board.cache_hierarchy.ruby_system.delayVCHist.vnet_0::bucket_size            4                       # delay histogram for vnet_0 (Unspecified)
board.cache_hierarchy.ruby_system.delayVCHist.vnet_0::max_bucket           39                       # delay histogram for vnet_0 (Unspecified)
board.cache_hierarchy.ruby_system.delayVCHist.vnet_0::samples    589788950                       # delay histogram for vnet_0 (Unspecified)
board.cache_hierarchy.ruby_system.delayVCHist.vnet_0::mean     0.369058                       # delay histogram for vnet_0 (Unspecified)
board.cache_hierarchy.ruby_system.delayVCHist.vnet_0::stdev     1.679355                       # delay histogram for vnet_0 (Unspecified)
board.cache_hierarchy.ruby_system.delayVCHist.vnet_0 |   562614307     95.39%     95.39% |       75702      0.01%     95.41% |    27080911      4.59%    100.00% |        4891      0.00%    100.00% |       13137      0.00%    100.00% |           1      0.00%    100.00% |           0      0.00%    100.00% |           0      0.00%    100.00% |           1      0.00%    100.00% |           0      0.00%    100.00% # delay histogram for vnet_0 (Unspecified)
board.cache_hierarchy.ruby_system.delayVCHist.vnet_0::total    589788950                       # delay histogram for vnet_0 (Unspecified)
board.cache_hierarchy.ruby_system.delayVCHist.vnet_1::bucket_size            2                       # delay histogram for vnet_1 (Unspecified)
board.cache_hierarchy.ruby_system.delayVCHist.vnet_1::max_bucket           19                       # delay histogram for vnet_1 (Unspecified)
board.cache_hierarchy.ruby_system.delayVCHist.vnet_1::samples    434817815                       # delay histogram for vnet_1 (Unspecified)
board.cache_hierarchy.ruby_system.delayVCHist.vnet_1::mean     0.000731                       # delay histogram for vnet_1 (Unspecified)
board.cache_hierarchy.ruby_system.delayVCHist.vnet_1::stdev     0.084329                       # delay histogram for vnet_1 (Unspecified)
board.cache_hierarchy.ruby_system.delayVCHist.vnet_1 |   434774898     99.99%     99.99% |        4373      0.00%     99.99% |        7834      0.00%     99.99% |        6927      0.00%     99.99% |       18344      0.00%    100.00% |        1054      0.00%    100.00% |           0      0.00%    100.00% |           0      0.00%    100.00% |           0      0.00%    100.00% |        4385      0.00%    100.00% # delay histogram for vnet_1 (Unspecified)
board.cache_hierarchy.ruby_system.delayVCHist.vnet_1::total    434817815                       # delay histogram for vnet_1 (Unspecified)
board.cache_hierarchy.ruby_system.delayVCHist.vnet_2::bucket_size            1                       # delay histogram for vnet_2 (Unspecified)
board.cache_hierarchy.ruby_system.delayVCHist.vnet_2::max_bucket            9                       # delay histogram for vnet_2 (Unspecified)
board.cache_hierarchy.ruby_system.delayVCHist.vnet_2::samples       147617                       # delay histogram for vnet_2 (Unspecified)
board.cache_hierarchy.ruby_system.delayVCHist.vnet_2::mean     0.000650                       # delay histogram for vnet_2 (Unspecified)
board.cache_hierarchy.ruby_system.delayVCHist.vnet_2::stdev     0.036059                       # delay histogram for vnet_2 (Unspecified)
board.cache_hierarchy.ruby_system.delayVCHist.vnet_2 |      147569     99.97%     99.97% |           0      0.00%     99.97% |          48      0.03%    100.00% |           0      0.00%    100.00% |           0      0.00%    100.00% |           0      0.00%    100.00% |           0      0.00%    100.00% |           0      0.00%    100.00% |           0      0.00%    100.00% |           0      0.00%    100.00% # delay histogram for vnet_2 (Unspecified)
board.cache_hierarchy.ruby_system.delayVCHist.vnet_2::total       147617                       # delay histogram for vnet_2 (Unspecified)
board.cache_hierarchy.ruby_system.Directory_Controller.Fetch |      673717     49.96%     49.96% |      674910     50.04%    100.00% (Unspecified)
board.cache_hierarchy.ruby_system.Directory_Controller.Fetch::total      1348627                       (Unspecified)
board.cache_hierarchy.ruby_system.Directory_Controller.Data |      396682     50.00%     50.00% |      396626     50.00%    100.00% (Unspecified)
board.cache_hierarchy.ruby_system.Directory_Controller.Data::total       793308                       (Unspecified)
board.cache_hierarchy.ruby_system.Directory_Controller.Memory_Data |      673718     49.96%     49.96% |      674910     50.04%    100.00% (Unspecified)
board.cache_hierarchy.ruby_system.Directory_Controller.Memory_Data::total      1348628                       (Unspecified)
board.cache_hierarchy.ruby_system.Directory_Controller.Memory_Ack |      397162     50.00%     50.00% |      397106     50.00%    100.00% (Unspecified)
board.cache_hierarchy.ruby_system.Directory_Controller.Memory_Ack::total       794268                       (Unspecified)
board.cache_hierarchy.ruby_system.Directory_Controller.DMA_READ |           5    100.00%    100.00% |           0      0.00%    100.00% (Unspecified)
board.cache_hierarchy.ruby_system.Directory_Controller.DMA_READ::total            5                       (Unspecified)
board.cache_hierarchy.ruby_system.Directory_Controller.DMA_WRITE |         480     50.00%     50.00% |         480     50.00%    100.00% (Unspecified)
board.cache_hierarchy.ruby_system.Directory_Controller.DMA_WRITE::total          960                       (Unspecified)
board.cache_hierarchy.ruby_system.Directory_Controller.CleanReplacement |      277035     49.89%     49.89% |      278284     50.11%    100.00% (Unspecified)
board.cache_hierarchy.ruby_system.Directory_Controller.CleanReplacement::total       555319                       (Unspecified)
board.cache_hierarchy.ruby_system.Directory_Controller.I.Fetch |      673717     49.96%     49.96% |      674910     50.04%    100.00% (Unspecified)
board.cache_hierarchy.ruby_system.Directory_Controller.I.Fetch::total      1348627                       (Unspecified)
board.cache_hierarchy.ruby_system.Directory_Controller.I.DMA_READ |           1    100.00%    100.00% |           0      0.00%    100.00% (Unspecified)
board.cache_hierarchy.ruby_system.Directory_Controller.I.DMA_READ::total            1                       (Unspecified)
board.cache_hierarchy.ruby_system.Directory_Controller.I.DMA_WRITE |         480     50.00%     50.00% |         480     50.00%    100.00% (Unspecified)
board.cache_hierarchy.ruby_system.Directory_Controller.I.DMA_WRITE::total          960                       (Unspecified)
board.cache_hierarchy.ruby_system.Directory_Controller.ID.Memory_Data |           1    100.00%    100.00% |           0      0.00%    100.00% (Unspecified)
board.cache_hierarchy.ruby_system.Directory_Controller.ID.Memory_Data::total            1                       (Unspecified)
board.cache_hierarchy.ruby_system.Directory_Controller.ID_W.Memory_Ack |         480     50.00%     50.00% |         480     50.00%    100.00% (Unspecified)
board.cache_hierarchy.ruby_system.Directory_Controller.ID_W.Memory_Ack::total          960                       (Unspecified)
board.cache_hierarchy.ruby_system.Directory_Controller.M.Data |      396678     50.00%     50.00% |      396626     50.00%    100.00% (Unspecified)
board.cache_hierarchy.ruby_system.Directory_Controller.M.Data::total       793304                       (Unspecified)
board.cache_hierarchy.ruby_system.Directory_Controller.M.DMA_READ |           4    100.00%    100.00% |           0      0.00%    100.00% (Unspecified)
board.cache_hierarchy.ruby_system.Directory_Controller.M.DMA_READ::total            4                       (Unspecified)
board.cache_hierarchy.ruby_system.Directory_Controller.M.CleanReplacement |      277035     49.89%     49.89% |      278284     50.11%    100.00% (Unspecified)
board.cache_hierarchy.ruby_system.Directory_Controller.M.CleanReplacement::total       555319                       (Unspecified)
board.cache_hierarchy.ruby_system.Directory_Controller.IM.Memory_Data |      673717     49.96%     49.96% |      674910     50.04%    100.00% (Unspecified)
board.cache_hierarchy.ruby_system.Directory_Controller.IM.Memory_Data::total      1348627                       (Unspecified)
board.cache_hierarchy.ruby_system.Directory_Controller.MI.Memory_Ack |      396678     50.00%     50.00% |      396626     50.00%    100.00% (Unspecified)
board.cache_hierarchy.ruby_system.Directory_Controller.MI.Memory_Ack::total       793304                       (Unspecified)
board.cache_hierarchy.ruby_system.Directory_Controller.M_DRD.Data |           4    100.00%    100.00% |           0      0.00%    100.00% (Unspecified)
board.cache_hierarchy.ruby_system.Directory_Controller.M_DRD.Data::total            4                       (Unspecified)
board.cache_hierarchy.ruby_system.Directory_Controller.M_DRDI.Memory_Ack |           4    100.00%    100.00% |           0      0.00%    100.00% (Unspecified)
board.cache_hierarchy.ruby_system.Directory_Controller.M_DRDI.Memory_Ack::total            4                       (Unspecified)
board.cache_hierarchy.ruby_system.DMA_Controller.ReadRequest |           5    100.00%    100.00% |           0      0.00%    100.00% (Unspecified)
board.cache_hierarchy.ruby_system.DMA_Controller.ReadRequest::total            5                       (Unspecified)
board.cache_hierarchy.ruby_system.DMA_Controller.WriteRequest |         960    100.00%    100.00% |           0      0.00%    100.00% (Unspecified)
board.cache_hierarchy.ruby_system.DMA_Controller.WriteRequest::total          960                       (Unspecified)
board.cache_hierarchy.ruby_system.DMA_Controller.Data |           5    100.00%    100.00% |           0      0.00%    100.00% (Unspecified)
board.cache_hierarchy.ruby_system.DMA_Controller.Data::total            5                       (Unspecified)
board.cache_hierarchy.ruby_system.DMA_Controller.Ack |         960    100.00%    100.00% |           0      0.00%    100.00% (Unspecified)
board.cache_hierarchy.ruby_system.DMA_Controller.Ack::total          960                       (Unspecified)
board.cache_hierarchy.ruby_system.DMA_Controller.READY.ReadRequest |           5    100.00%    100.00% |           0      0.00%    100.00% (Unspecified)
board.cache_hierarchy.ruby_system.DMA_Controller.READY.ReadRequest::total            5                       (Unspecified)
board.cache_hierarchy.ruby_system.DMA_Controller.READY.WriteRequest |         960    100.00%    100.00% |           0      0.00%    100.00% (Unspecified)
board.cache_hierarchy.ruby_system.DMA_Controller.READY.WriteRequest::total          960                       (Unspecified)
board.cache_hierarchy.ruby_system.DMA_Controller.BUSY_RD.Data |           5    100.00%    100.00% |           0      0.00%    100.00% (Unspecified)
board.cache_hierarchy.ruby_system.DMA_Controller.BUSY_RD.Data::total            5                       (Unspecified)
board.cache_hierarchy.ruby_system.DMA_Controller.BUSY_WR.Ack |         960    100.00%    100.00% |           0      0.00%    100.00% (Unspecified)
board.cache_hierarchy.ruby_system.DMA_Controller.BUSY_WR.Ack::total          960                       (Unspecified)
board.cache_hierarchy.ruby_system.L1Cache_Controller.Load |   294395337     97.46%     97.46% |     7679610      2.54%    100.00% (Unspecified)
board.cache_hierarchy.ruby_system.L1Cache_Controller.Load::total    302074947                       (Unspecified)
board.cache_hierarchy.ruby_system.L1Cache_Controller.Ifetch |  1355146675     97.32%     97.32% |    37379758      2.68%    100.00% (Unspecified)
board.cache_hierarchy.ruby_system.L1Cache_Controller.Ifetch::total   1392526433                       (Unspecified)
board.cache_hierarchy.ruby_system.L1Cache_Controller.Store |   152730637     96.81%     96.81% |     5029950      3.19%    100.00% (Unspecified)
board.cache_hierarchy.ruby_system.L1Cache_Controller.Store::total    157760587                       (Unspecified)
board.cache_hierarchy.ruby_system.L1Cache_Controller.Inv |      110782     77.78%     77.78% |       31652     22.22%    100.00% (Unspecified)
board.cache_hierarchy.ruby_system.L1Cache_Controller.Inv::total       142434                       (Unspecified)
board.cache_hierarchy.ruby_system.L1Cache_Controller.L1_Replacement |   268620422     97.98%     97.98% |     5545540      2.02%    100.00% (Unspecified)
board.cache_hierarchy.ruby_system.L1Cache_Controller.L1_Replacement::total    274165962                       (Unspecified)
board.cache_hierarchy.ruby_system.L1Cache_Controller.Fwd_GETX |          14     70.00%     70.00% |           6     30.00%    100.00% (Unspecified)
board.cache_hierarchy.ruby_system.L1Cache_Controller.Fwd_GETX::total           20                       (Unspecified)
board.cache_hierarchy.ruby_system.L1Cache_Controller.Fwd_GETS |        4486     86.89%     86.89% |         677     13.11%    100.00% (Unspecified)
board.cache_hierarchy.ruby_system.L1Cache_Controller.Fwd_GETS::total         5163                       (Unspecified)
board.cache_hierarchy.ruby_system.L1Cache_Controller.Data |        4010     96.44%     96.44% |         148      3.56%    100.00% (Unspecified)
board.cache_hierarchy.ruby_system.L1Cache_Controller.Data::total         4158                       (Unspecified)
board.cache_hierarchy.ruby_system.L1Cache_Controller.Data_Exclusive |   124670952     98.48%     98.48% |     1923971      1.52%    100.00% (Unspecified)
board.cache_hierarchy.ruby_system.L1Cache_Controller.Data_Exclusive::total    126594923                       (Unspecified)
board.cache_hierarchy.ruby_system.L1Cache_Controller.DataS_fromL1 |         677     13.11%     13.11% |        4486     86.89%    100.00% (Unspecified)
board.cache_hierarchy.ruby_system.L1Cache_Controller.DataS_fromL1::total         5163                       (Unspecified)
board.cache_hierarchy.ruby_system.L1Cache_Controller.Data_all_Acks |   143944793     97.55%     97.55% |     3616945      2.45%    100.00% (Unspecified)
board.cache_hierarchy.ruby_system.L1Cache_Controller.Data_all_Acks::total    147561738                       (Unspecified)
board.cache_hierarchy.ruby_system.L1Cache_Controller.Ack |         445     47.19%     47.19% |         498     52.81%    100.00% (Unspecified)
board.cache_hierarchy.ruby_system.L1Cache_Controller.Ack::total          943                       (Unspecified)
board.cache_hierarchy.ruby_system.L1Cache_Controller.Ack_all |        4455     87.34%     87.34% |         646     12.66%    100.00% (Unspecified)
board.cache_hierarchy.ruby_system.L1Cache_Controller.Ack_all::total         5101                       (Unspecified)
board.cache_hierarchy.ruby_system.L1Cache_Controller.WB_Ack |   155184164     98.34%     98.34% |     2621871      1.66%    100.00% (Unspecified)
board.cache_hierarchy.ruby_system.L1Cache_Controller.WB_Ack::total    157806035                       (Unspecified)
board.cache_hierarchy.ruby_system.L1Cache_Controller.NP.Load |   126881128     98.22%     98.22% |     2298671      1.78%    100.00% (Unspecified)
board.cache_hierarchy.ruby_system.L1Cache_Controller.NP.Load::total    129179799                       (Unspecified)
board.cache_hierarchy.ruby_system.L1Cache_Controller.NP.Ifetch |   111222412     97.76%     97.76% |     2548791      2.24%    100.00% (Unspecified)
board.cache_hierarchy.ruby_system.L1Cache_Controller.NP.Ifetch::total    113771203                       (Unspecified)
board.cache_hierarchy.ruby_system.L1Cache_Controller.NP.Store |    30516882     97.76%     97.76% |      698078      2.24%    100.00% (Unspecified)
board.cache_hierarchy.ruby_system.L1Cache_Controller.NP.Store::total     31214960                       (Unspecified)
board.cache_hierarchy.ruby_system.L1Cache_Controller.NP.Inv |      110756     77.78%     77.78% |       31635     22.22%    100.00% (Unspecified)
board.cache_hierarchy.ruby_system.L1Cache_Controller.NP.Inv::total       142391                       (Unspecified)
board.cache_hierarchy.ruby_system.L1Cache_Controller.I.Load |           2     16.67%     16.67% |          10     83.33%    100.00% (Unspecified)
board.cache_hierarchy.ruby_system.L1Cache_Controller.I.Load::total           12                       (Unspecified)
board.cache_hierarchy.ruby_system.L1Cache_Controller.I.Ifetch |           8    100.00%    100.00% |           0      0.00%    100.00% (Unspecified)
board.cache_hierarchy.ruby_system.L1Cache_Controller.I.Ifetch::total            8                       (Unspecified)
board.cache_hierarchy.ruby_system.L1Cache_Controller.I.L1_Replacement |          30     69.77%     69.77% |          13     30.23%    100.00% (Unspecified)
board.cache_hierarchy.ruby_system.L1Cache_Controller.I.L1_Replacement::total           43                       (Unspecified)
board.cache_hierarchy.ruby_system.L1Cache_Controller.S.Load |     1419160     93.77%     93.77% |       94315      6.23%    100.00% (Unspecified)
board.cache_hierarchy.ruby_system.L1Cache_Controller.S.Load::total      1513475                       (Unspecified)
board.cache_hierarchy.ruby_system.L1Cache_Controller.S.Ifetch |  1243924255     97.28%     97.28% |    34830967      2.72%    100.00% (Unspecified)
board.cache_hierarchy.ruby_system.L1Cache_Controller.S.Ifetch::total   1278755222                       (Unspecified)
board.cache_hierarchy.ruby_system.L1Cache_Controller.S.Store |         445     47.19%     47.19% |         498     52.81%    100.00% (Unspecified)
board.cache_hierarchy.ruby_system.L1Cache_Controller.S.Store::total          943                       (Unspecified)
board.cache_hierarchy.ruby_system.L1Cache_Controller.S.Inv |          26     61.90%     61.90% |          16     38.10%    100.00% (Unspecified)
board.cache_hierarchy.ruby_system.L1Cache_Controller.S.Inv::total           42                       (Unspecified)
board.cache_hierarchy.ruby_system.L1Cache_Controller.S.L1_Replacement |   113436229     97.49%     97.49% |     2923656      2.51%    100.00% (Unspecified)
board.cache_hierarchy.ruby_system.L1Cache_Controller.S.L1_Replacement::total    116359885                       (Unspecified)
board.cache_hierarchy.ruby_system.L1Cache_Controller.E.Load |   107653332     97.42%     97.42% |     2850220      2.58%    100.00% (Unspecified)
board.cache_hierarchy.ruby_system.L1Cache_Controller.E.Load::total    110503552                       (Unspecified)
board.cache_hierarchy.ruby_system.L1Cache_Controller.E.Store |    23702335     98.26%     98.26% |      418585      1.74%    100.00% (Unspecified)
board.cache_hierarchy.ruby_system.L1Cache_Controller.E.Store::total     24120920                       (Unspecified)
board.cache_hierarchy.ruby_system.L1Cache_Controller.E.L1_Replacement |   100964531     98.53%     98.53% |     1505125      1.47%    100.00% (Unspecified)
board.cache_hierarchy.ruby_system.L1Cache_Controller.E.L1_Replacement::total    102469656                       (Unspecified)
board.cache_hierarchy.ruby_system.L1Cache_Controller.E.Fwd_GETX |          13     81.25%     81.25% |           3     18.75%    100.00% (Unspecified)
board.cache_hierarchy.ruby_system.L1Cache_Controller.E.Fwd_GETX::total           16                       (Unspecified)
board.cache_hierarchy.ruby_system.L1Cache_Controller.E.Fwd_GETS |        4073     94.04%     94.04% |         258      5.96%    100.00% (Unspecified)
board.cache_hierarchy.ruby_system.L1Cache_Controller.E.Fwd_GETS::total         4331                       (Unspecified)
board.cache_hierarchy.ruby_system.L1Cache_Controller.M.Load |    58441698     96.00%     96.00% |     2436385      4.00%    100.00% (Unspecified)
board.cache_hierarchy.ruby_system.L1Cache_Controller.M.Load::total     60878083                       (Unspecified)
board.cache_hierarchy.ruby_system.L1Cache_Controller.M.Store |    98510973     96.18%     96.18% |     3912788      3.82%    100.00% (Unspecified)
board.cache_hierarchy.ruby_system.L1Cache_Controller.M.Store::total    102423761                       (Unspecified)
board.cache_hierarchy.ruby_system.L1Cache_Controller.M.Inv |           0      0.00%      0.00% |           1    100.00%    100.00% (Unspecified)
board.cache_hierarchy.ruby_system.L1Cache_Controller.M.Inv::total            1                       (Unspecified)
board.cache_hierarchy.ruby_system.L1Cache_Controller.M.L1_Replacement |    54219632     97.98%     97.98% |     1116746      2.02%    100.00% (Unspecified)
board.cache_hierarchy.ruby_system.L1Cache_Controller.M.L1_Replacement::total     55336378                       (Unspecified)
board.cache_hierarchy.ruby_system.L1Cache_Controller.M.Fwd_GETX |           1     25.00%     25.00% |           3     75.00%    100.00% (Unspecified)
board.cache_hierarchy.ruby_system.L1Cache_Controller.M.Fwd_GETX::total            4                       (Unspecified)
board.cache_hierarchy.ruby_system.L1Cache_Controller.M.Fwd_GETS |          28      6.38%      6.38% |         411     93.62%    100.00% (Unspecified)
board.cache_hierarchy.ruby_system.L1Cache_Controller.M.Fwd_GETS::total          439                       (Unspecified)
board.cache_hierarchy.ruby_system.L1Cache_Controller.IS.Data_Exclusive |   124670952     98.48%     98.48% |     1923971      1.52%    100.00% (Unspecified)
board.cache_hierarchy.ruby_system.L1Cache_Controller.IS.Data_Exclusive::total    126594923                       (Unspecified)
board.cache_hierarchy.ruby_system.L1Cache_Controller.IS.DataS_fromL1 |         677     13.11%     13.11% |        4486     86.89%    100.00% (Unspecified)
board.cache_hierarchy.ruby_system.L1Cache_Controller.IS.DataS_fromL1::total         5163                       (Unspecified)
board.cache_hierarchy.ruby_system.L1Cache_Controller.IS.Data_all_Acks |   113431921     97.49%     97.49% |     2919015      2.51%    100.00% (Unspecified)
board.cache_hierarchy.ruby_system.L1Cache_Controller.IS.Data_all_Acks::total    116350936                       (Unspecified)
board.cache_hierarchy.ruby_system.L1Cache_Controller.IM.Data |        4010     96.44%     96.44% |         148      3.56%    100.00% (Unspecified)
board.cache_hierarchy.ruby_system.L1Cache_Controller.IM.Data::total         4158                       (Unspecified)
board.cache_hierarchy.ruby_system.L1Cache_Controller.IM.Data_all_Acks |    30512872     97.76%     97.76% |      697930      2.24%    100.00% (Unspecified)
board.cache_hierarchy.ruby_system.L1Cache_Controller.IM.Data_all_Acks::total     31210802                       (Unspecified)
board.cache_hierarchy.ruby_system.L1Cache_Controller.SM.Ack |         445     47.19%     47.19% |         498     52.81%    100.00% (Unspecified)
board.cache_hierarchy.ruby_system.L1Cache_Controller.SM.Ack::total          943                       (Unspecified)
board.cache_hierarchy.ruby_system.L1Cache_Controller.SM.Ack_all |        4455     87.34%     87.34% |         646     12.66%    100.00% (Unspecified)
board.cache_hierarchy.ruby_system.L1Cache_Controller.SM.Ack_all::total         5101                       (Unspecified)
board.cache_hierarchy.ruby_system.L1Cache_Controller.M_I.Load |          17     65.38%     65.38% |           9     34.62%    100.00% (Unspecified)
board.cache_hierarchy.ruby_system.L1Cache_Controller.M_I.Load::total           26                       (Unspecified)
board.cache_hierarchy.ruby_system.L1Cache_Controller.M_I.Store |           2     66.67%     66.67% |           1     33.33%    100.00% (Unspecified)
board.cache_hierarchy.ruby_system.L1Cache_Controller.M_I.Store::total            3                       (Unspecified)
board.cache_hierarchy.ruby_system.L1Cache_Controller.M_I.Fwd_GETS |         385     97.96%     97.96% |           8      2.04%    100.00% (Unspecified)
board.cache_hierarchy.ruby_system.L1Cache_Controller.M_I.Fwd_GETS::total          393                       (Unspecified)
board.cache_hierarchy.ruby_system.L1Cache_Controller.M_I.WB_Ack |   155183779     98.34%     98.34% |     2621863      1.66%    100.00% (Unspecified)
board.cache_hierarchy.ruby_system.L1Cache_Controller.M_I.WB_Ack::total    157805642                       (Unspecified)
board.cache_hierarchy.ruby_system.L1Cache_Controller.SINK_WB_ACK.WB_Ack |         385     97.96%     97.96% |           8      2.04%    100.00% (Unspecified)
board.cache_hierarchy.ruby_system.L1Cache_Controller.SINK_WB_ACK.WB_Ack::total          393                       (Unspecified)
board.cache_hierarchy.ruby_system.L2Cache_Controller.L1_GET_INSTR |    56988335     50.09%     50.09% |    56782876     49.91%    100.00% (Unspecified)
board.cache_hierarchy.ruby_system.L2Cache_Controller.L1_GET_INSTR::total    113771211                       (Unspecified)
board.cache_hierarchy.ruby_system.L2Cache_Controller.L1_GETS |    68348566     52.91%     52.91% |    60831302     47.09%    100.00% (Unspecified)
board.cache_hierarchy.ruby_system.L2Cache_Controller.L1_GETS::total    129179868                       (Unspecified)
board.cache_hierarchy.ruby_system.L2Cache_Controller.L1_GETX |    13522148     43.32%     43.32% |    17692812     56.68%    100.00% (Unspecified)
board.cache_hierarchy.ruby_system.L2Cache_Controller.L1_GETX::total     31214960                       (Unspecified)
board.cache_hierarchy.ruby_system.L2Cache_Controller.L1_UPGRADE |         128     13.50%     13.50% |         820     86.50%    100.00% (Unspecified)
board.cache_hierarchy.ruby_system.L2Cache_Controller.L1_UPGRADE::total          948                       (Unspecified)
board.cache_hierarchy.ruby_system.L2Cache_Controller.L1_PUTX |    80131110     50.78%     50.78% |    77675318     49.22%    100.00% (Unspecified)
board.cache_hierarchy.ruby_system.L2Cache_Controller.L1_PUTX::total    157806428                       (Unspecified)
board.cache_hierarchy.ruby_system.L2Cache_Controller.L2_Replacement |      396678     50.00%     50.00% |      396626     50.00%    100.00% (Unspecified)
board.cache_hierarchy.ruby_system.L2Cache_Controller.L2_Replacement::total       793304                       (Unspecified)
board.cache_hierarchy.ruby_system.L2Cache_Controller.L2_Replacement_clean |      277035     49.89%     49.89% |      278284     50.11%    100.00% (Unspecified)
board.cache_hierarchy.ruby_system.L2Cache_Controller.L2_Replacement_clean::total       555319                       (Unspecified)
board.cache_hierarchy.ruby_system.L2Cache_Controller.Mem_Data |      673717     49.96%     49.96% |      674910     50.04%    100.00% (Unspecified)
board.cache_hierarchy.ruby_system.L2Cache_Controller.Mem_Data::total      1348627                       (Unspecified)
board.cache_hierarchy.ruby_system.L2Cache_Controller.Mem_Ack |      673717     49.96%     49.96% |      674910     50.04%    100.00% (Unspecified)
board.cache_hierarchy.ruby_system.L2Cache_Controller.Mem_Ack::total      1348627                       (Unspecified)
board.cache_hierarchy.ruby_system.L2Cache_Controller.WB_Data |          27      6.11%      6.11% |         415     93.89%    100.00% (Unspecified)
board.cache_hierarchy.ruby_system.L2Cache_Controller.WB_Data::total          442                       (Unspecified)
board.cache_hierarchy.ruby_system.L2Cache_Controller.WB_Data_clean |        4251     90.03%     90.03% |         471      9.97%    100.00% (Unspecified)
board.cache_hierarchy.ruby_system.L2Cache_Controller.WB_Data_clean::total         4722                       (Unspecified)
board.cache_hierarchy.ruby_system.L2Cache_Controller.Ack |        5324     50.21%     50.21% |        5279     49.79%    100.00% (Unspecified)
board.cache_hierarchy.ruby_system.L2Cache_Controller.Ack::total        10603                       (Unspecified)
board.cache_hierarchy.ruby_system.L2Cache_Controller.Ack_all |       63296     49.95%     49.95% |       63433     50.05%    100.00% (Unspecified)
board.cache_hierarchy.ruby_system.L2Cache_Controller.Ack_all::total       126729                       (Unspecified)
board.cache_hierarchy.ruby_system.L2Cache_Controller.Unblock |        4278     82.86%     82.86% |         885     17.14%    100.00% (Unspecified)
board.cache_hierarchy.ruby_system.L2Cache_Controller.Unblock::total         5163                       (Unspecified)
board.cache_hierarchy.ruby_system.L2Cache_Controller.Exclusive_Unblock |    80134646     50.78%     50.78% |    77676180     49.22%    100.00% (Unspecified)
board.cache_hierarchy.ruby_system.L2Cache_Controller.Exclusive_Unblock::total    157810826                       (Unspecified)
board.cache_hierarchy.ruby_system.L2Cache_Controller.MEM_Inv |           8    100.00%    100.00% |           0      0.00%    100.00% (Unspecified)
board.cache_hierarchy.ruby_system.L2Cache_Controller.MEM_Inv::total            8                       (Unspecified)
board.cache_hierarchy.ruby_system.L2Cache_Controller.NP.L1_GET_INSTR |       62652     49.95%     49.95% |       62765     50.05%    100.00% (Unspecified)
board.cache_hierarchy.ruby_system.L2Cache_Controller.NP.L1_GET_INSTR::total       125417                       (Unspecified)
board.cache_hierarchy.ruby_system.L2Cache_Controller.NP.L1_GETS |      403635     49.98%     49.98% |      403928     50.02%    100.00% (Unspecified)
board.cache_hierarchy.ruby_system.L2Cache_Controller.NP.L1_GETS::total       807563                       (Unspecified)
board.cache_hierarchy.ruby_system.L2Cache_Controller.NP.L1_GETX |      207430     49.91%     49.91% |      208217     50.09%    100.00% (Unspecified)
board.cache_hierarchy.ruby_system.L2Cache_Controller.NP.L1_GETX::total       415647                       (Unspecified)
board.cache_hierarchy.ruby_system.L2Cache_Controller.SS.L1_GET_INSTR |    56925659     50.09%     50.09% |    56720074     49.91%    100.00% (Unspecified)
board.cache_hierarchy.ruby_system.L2Cache_Controller.SS.L1_GET_INSTR::total    113645733                       (Unspecified)
board.cache_hierarchy.ruby_system.L2Cache_Controller.SS.L1_GETS |     1731863     67.13%     67.13% |      847859     32.87%    100.00% (Unspecified)
board.cache_hierarchy.ruby_system.L2Cache_Controller.SS.L1_GETS::total      2579722                       (Unspecified)
board.cache_hierarchy.ruby_system.L2Cache_Controller.SS.L1_GETX |        4120     99.09%     99.09% |          38      0.91%    100.00% (Unspecified)
board.cache_hierarchy.ruby_system.L2Cache_Controller.SS.L1_GETX::total         4158                       (Unspecified)
board.cache_hierarchy.ruby_system.L2Cache_Controller.SS.L1_UPGRADE |         124     13.15%     13.15% |         819     86.85%    100.00% (Unspecified)
board.cache_hierarchy.ruby_system.L2Cache_Controller.SS.L1_UPGRADE::total          943                       (Unspecified)
board.cache_hierarchy.ruby_system.L2Cache_Controller.SS.L1_PUTX |         377     95.93%     95.93% |          16      4.07%    100.00% (Unspecified)
board.cache_hierarchy.ruby_system.L2Cache_Controller.SS.L1_PUTX::total          393                       (Unspecified)
board.cache_hierarchy.ruby_system.L2Cache_Controller.SS.L2_Replacement |           2    100.00%    100.00% |           0      0.00%    100.00% (Unspecified)
board.cache_hierarchy.ruby_system.L2Cache_Controller.SS.L2_Replacement::total            2                       (Unspecified)
board.cache_hierarchy.ruby_system.L2Cache_Controller.SS.L2_Replacement_clean |       63294     49.95%     49.95% |       63433     50.05%    100.00% (Unspecified)
board.cache_hierarchy.ruby_system.L2Cache_Controller.SS.L2_Replacement_clean::total       126727                       (Unspecified)
board.cache_hierarchy.ruby_system.L2Cache_Controller.M.L1_GET_INSTR |           3     33.33%     33.33% |           6     66.67%    100.00% (Unspecified)
board.cache_hierarchy.ruby_system.L2Cache_Controller.M.L1_GET_INSTR::total            9                       (Unspecified)
board.cache_hierarchy.ruby_system.L2Cache_Controller.M.L1_GETS |    66208740     52.64%     52.64% |    59578622     47.36%    100.00% (Unspecified)
board.cache_hierarchy.ruby_system.L2Cache_Controller.M.L1_GETS::total    125787362                       (Unspecified)
board.cache_hierarchy.ruby_system.L2Cache_Controller.M.L1_GETX |    13310590     43.22%     43.22% |    17484545     56.78%    100.00% (Unspecified)
board.cache_hierarchy.ruby_system.L2Cache_Controller.M.L1_GETX::total     30795135                       (Unspecified)
board.cache_hierarchy.ruby_system.L2Cache_Controller.M.L2_Replacement |      396676     50.00%     50.00% |      396625     50.00%    100.00% (Unspecified)
board.cache_hierarchy.ruby_system.L2Cache_Controller.M.L2_Replacement::total       793301                       (Unspecified)
board.cache_hierarchy.ruby_system.L2Cache_Controller.M.L2_Replacement_clean |      213741     49.87%     49.87% |      214851     50.13%    100.00% (Unspecified)
board.cache_hierarchy.ruby_system.L2Cache_Controller.M.L2_Replacement_clean::total       428592                       (Unspecified)
board.cache_hierarchy.ruby_system.L2Cache_Controller.M.MEM_Inv |           4    100.00%    100.00% |           0      0.00%    100.00% (Unspecified)
board.cache_hierarchy.ruby_system.L2Cache_Controller.M.MEM_Inv::total            4                       (Unspecified)
board.cache_hierarchy.ruby_system.L2Cache_Controller.MT.L1_GETS |        4278     82.86%     82.86% |         885     17.14%    100.00% (Unspecified)
board.cache_hierarchy.ruby_system.L2Cache_Controller.MT.L1_GETS::total         5163                       (Unspecified)
board.cache_hierarchy.ruby_system.L2Cache_Controller.MT.L1_GETX |           8     40.00%     40.00% |          12     60.00%    100.00% (Unspecified)
board.cache_hierarchy.ruby_system.L2Cache_Controller.MT.L1_GETX::total           20                       (Unspecified)
board.cache_hierarchy.ruby_system.L2Cache_Controller.MT.L1_PUTX |    80130356     50.78%     50.78% |    77675286     49.22%    100.00% (Unspecified)
board.cache_hierarchy.ruby_system.L2Cache_Controller.MT.L1_PUTX::total    157805642                       (Unspecified)
board.cache_hierarchy.ruby_system.L2Cache_Controller.MT.L2_Replacement |           0      0.00%      0.00% |           1    100.00%    100.00% (Unspecified)
board.cache_hierarchy.ruby_system.L2Cache_Controller.MT.L2_Replacement::total            1                       (Unspecified)
board.cache_hierarchy.ruby_system.L2Cache_Controller.M_I.L1_GETS |           1    100.00%    100.00% |           0      0.00%    100.00% (Unspecified)
board.cache_hierarchy.ruby_system.L2Cache_Controller.M_I.L1_GETS::total            1                       (Unspecified)
board.cache_hierarchy.ruby_system.L2Cache_Controller.M_I.Mem_Ack |      673717     49.96%     49.96% |      674910     50.04%    100.00% (Unspecified)
board.cache_hierarchy.ruby_system.L2Cache_Controller.M_I.Mem_Ack::total      1348627                       (Unspecified)
board.cache_hierarchy.ruby_system.L2Cache_Controller.M_I.MEM_Inv |           4    100.00%    100.00% |           0      0.00%    100.00% (Unspecified)
board.cache_hierarchy.ruby_system.L2Cache_Controller.M_I.MEM_Inv::total            4                       (Unspecified)
board.cache_hierarchy.ruby_system.L2Cache_Controller.MT_I.WB_Data |           0      0.00%      0.00% |           1    100.00%    100.00% (Unspecified)
board.cache_hierarchy.ruby_system.L2Cache_Controller.MT_I.WB_Data::total            1                       (Unspecified)
board.cache_hierarchy.ruby_system.L2Cache_Controller.I_I.Ack |        5322     50.20%     50.20% |        5279     49.80%    100.00% (Unspecified)
board.cache_hierarchy.ruby_system.L2Cache_Controller.I_I.Ack::total        10601                       (Unspecified)
board.cache_hierarchy.ruby_system.L2Cache_Controller.I_I.Ack_all |       63294     49.95%     49.95% |       63433     50.05%    100.00% (Unspecified)
board.cache_hierarchy.ruby_system.L2Cache_Controller.I_I.Ack_all::total       126727                       (Unspecified)
board.cache_hierarchy.ruby_system.L2Cache_Controller.S_I.Ack |           2    100.00%    100.00% |           0      0.00%    100.00% (Unspecified)
board.cache_hierarchy.ruby_system.L2Cache_Controller.S_I.Ack::total            2                       (Unspecified)
board.cache_hierarchy.ruby_system.L2Cache_Controller.S_I.Ack_all |           2    100.00%    100.00% |           0      0.00%    100.00% (Unspecified)
board.cache_hierarchy.ruby_system.L2Cache_Controller.S_I.Ack_all::total            2                       (Unspecified)
board.cache_hierarchy.ruby_system.L2Cache_Controller.ISS.L1_GETS |           1     50.00%     50.00% |           1     50.00%    100.00% (Unspecified)
board.cache_hierarchy.ruby_system.L2Cache_Controller.ISS.L1_GETS::total            2                       (Unspecified)
board.cache_hierarchy.ruby_system.L2Cache_Controller.ISS.Mem_Data |      403634     49.98%     49.98% |      403927     50.02%    100.00% (Unspecified)
board.cache_hierarchy.ruby_system.L2Cache_Controller.ISS.Mem_Data::total       807561                       (Unspecified)
board.cache_hierarchy.ruby_system.L2Cache_Controller.IS.L1_GET_INSTR |          21     40.38%     40.38% |          31     59.62%    100.00% (Unspecified)
board.cache_hierarchy.ruby_system.L2Cache_Controller.IS.L1_GET_INSTR::total           52                       (Unspecified)
board.cache_hierarchy.ruby_system.L2Cache_Controller.IS.Mem_Data |       62653     49.95%     49.95% |       62766     50.05%    100.00% (Unspecified)
board.cache_hierarchy.ruby_system.L2Cache_Controller.IS.Mem_Data::total       125419                       (Unspecified)
board.cache_hierarchy.ruby_system.L2Cache_Controller.IM.Mem_Data |      207430     49.91%     49.91% |      208217     50.09%    100.00% (Unspecified)
board.cache_hierarchy.ruby_system.L2Cache_Controller.IM.Mem_Data::total       415647                       (Unspecified)
board.cache_hierarchy.ruby_system.L2Cache_Controller.SS_MB.L1_GETS |           5     83.33%     83.33% |           1     16.67%    100.00% (Unspecified)
board.cache_hierarchy.ruby_system.L2Cache_Controller.SS_MB.L1_GETS::total            6                       (Unspecified)
board.cache_hierarchy.ruby_system.L2Cache_Controller.SS_MB.Exclusive_Unblock |        4244     83.20%     83.20% |         857     16.80%    100.00% (Unspecified)
board.cache_hierarchy.ruby_system.L2Cache_Controller.SS_MB.Exclusive_Unblock::total         5101                       (Unspecified)
board.cache_hierarchy.ruby_system.L2Cache_Controller.MT_MB.L1_GETS |          43     87.76%     87.76% |           6     12.24%    100.00% (Unspecified)
board.cache_hierarchy.ruby_system.L2Cache_Controller.MT_MB.L1_GETS::total           49                       (Unspecified)
board.cache_hierarchy.ruby_system.L2Cache_Controller.MT_MB.Exclusive_Unblock |    80130402     50.78%     50.78% |    77675323     49.22%    100.00% (Unspecified)
board.cache_hierarchy.ruby_system.L2Cache_Controller.MT_MB.Exclusive_Unblock::total    157805725                       (Unspecified)
board.cache_hierarchy.ruby_system.L2Cache_Controller.MT_IIB.L1_PUTX |         377     95.93%     95.93% |          16      4.07%    100.00% (Unspecified)
board.cache_hierarchy.ruby_system.L2Cache_Controller.MT_IIB.L1_PUTX::total          393                       (Unspecified)
board.cache_hierarchy.ruby_system.L2Cache_Controller.MT_IIB.WB_Data |          27      6.12%      6.12% |         414     93.88%    100.00% (Unspecified)
board.cache_hierarchy.ruby_system.L2Cache_Controller.MT_IIB.WB_Data::total          441                       (Unspecified)
board.cache_hierarchy.ruby_system.L2Cache_Controller.MT_IIB.WB_Data_clean |        4251     90.03%     90.03% |         471      9.97%    100.00% (Unspecified)
board.cache_hierarchy.ruby_system.L2Cache_Controller.MT_IIB.WB_Data_clean::total         4722                       (Unspecified)
board.cache_hierarchy.ruby_system.L2Cache_Controller.MT_SB.L1_UPGRADE |           4     80.00%     80.00% |           1     20.00%    100.00% (Unspecified)
board.cache_hierarchy.ruby_system.L2Cache_Controller.MT_SB.L1_UPGRADE::total            5                       (Unspecified)
board.cache_hierarchy.ruby_system.L2Cache_Controller.MT_SB.Unblock |        4278     82.86%     82.86% |         885     17.14%    100.00% (Unspecified)
board.cache_hierarchy.ruby_system.L2Cache_Controller.MT_SB.Unblock::total         5163                       (Unspecified)
board.cache_hierarchy.ruby_system.RequestType.LD.latency_hist_seqr::bucket_size          256                       (Unspecified)
board.cache_hierarchy.ruby_system.RequestType.LD.latency_hist_seqr::max_bucket         2559                       (Unspecified)
board.cache_hierarchy.ruby_system.RequestType.LD.latency_hist_seqr::samples    302074922                       (Unspecified)
board.cache_hierarchy.ruby_system.RequestType.LD.latency_hist_seqr::mean     6.921336                       (Unspecified)
board.cache_hierarchy.ruby_system.RequestType.LD.latency_hist_seqr::gmean     3.074291                       (Unspecified)
board.cache_hierarchy.ruby_system.RequestType.LD.latency_hist_seqr::stdev    13.743799                       (Unspecified)
board.cache_hierarchy.ruby_system.RequestType.LD.latency_hist_seqr |   302024637     99.98%     99.98% |       30410      0.01%     99.99% |        5952      0.00%    100.00% |        5152      0.00%    100.00% |        8597      0.00%    100.00% |          96      0.00%    100.00% |          77      0.00%    100.00% |           1      0.00%    100.00% |           0      0.00%    100.00% |           0      0.00%    100.00% (Unspecified)
board.cache_hierarchy.ruby_system.RequestType.LD.latency_hist_seqr::total    302074922                       (Unspecified)
board.cache_hierarchy.ruby_system.RequestType.LD.hit_latency_hist_seqr::bucket_size            1                       (Unspecified)
board.cache_hierarchy.ruby_system.RequestType.LD.hit_latency_hist_seqr::max_bucket            9                       (Unspecified)
board.cache_hierarchy.ruby_system.RequestType.LD.hit_latency_hist_seqr::samples    172895110                       (Unspecified)
board.cache_hierarchy.ruby_system.RequestType.LD.hit_latency_hist_seqr::mean            1                       (Unspecified)
board.cache_hierarchy.ruby_system.RequestType.LD.hit_latency_hist_seqr::gmean            1                       (Unspecified)
board.cache_hierarchy.ruby_system.RequestType.LD.hit_latency_hist_seqr |           0      0.00%      0.00% |   172895110    100.00%    100.00% |           0      0.00%    100.00% |           0      0.00%    100.00% |           0      0.00%    100.00% |           0      0.00%    100.00% |           0      0.00%    100.00% |           0      0.00%    100.00% |           0      0.00%    100.00% |           0      0.00%    100.00% (Unspecified)
board.cache_hierarchy.ruby_system.RequestType.LD.hit_latency_hist_seqr::total    172895110                       (Unspecified)
board.cache_hierarchy.ruby_system.RequestType.LD.miss_latency_hist_seqr::bucket_size          256                       (Unspecified)
board.cache_hierarchy.ruby_system.RequestType.LD.miss_latency_hist_seqr::max_bucket         2559                       (Unspecified)
board.cache_hierarchy.ruby_system.RequestType.LD.miss_latency_hist_seqr::samples    129179812                       (Unspecified)
board.cache_hierarchy.ruby_system.RequestType.LD.miss_latency_hist_seqr::mean    14.846490                       (Unspecified)
board.cache_hierarchy.ruby_system.RequestType.LD.miss_latency_hist_seqr::gmean    13.821214                       (Unspecified)
board.cache_hierarchy.ruby_system.RequestType.LD.miss_latency_hist_seqr::stdev    18.220064                       (Unspecified)
board.cache_hierarchy.ruby_system.RequestType.LD.miss_latency_hist_seqr |   129129527     99.96%     99.96% |       30410      0.02%     99.98% |        5952      0.00%     99.99% |        5152      0.00%     99.99% |        8597      0.01%    100.00% |          96      0.00%    100.00% |          77      0.00%    100.00% |           1      0.00%    100.00% |           0      0.00%    100.00% |           0      0.00%    100.00% (Unspecified)
board.cache_hierarchy.ruby_system.RequestType.LD.miss_latency_hist_seqr::total    129179812                       (Unspecified)
board.cache_hierarchy.ruby_system.RequestType.ST.latency_hist_seqr::bucket_size          256                       (Unspecified)
board.cache_hierarchy.ruby_system.RequestType.ST.latency_hist_seqr::max_bucket         2559                       (Unspecified)
board.cache_hierarchy.ruby_system.RequestType.ST.latency_hist_seqr::samples    150969027                       (Unspecified)
board.cache_hierarchy.ruby_system.RequestType.ST.latency_hist_seqr::mean     3.795976                       (Unspecified)
board.cache_hierarchy.ruby_system.RequestType.ST.latency_hist_seqr::gmean     1.637847                       (Unspecified)
board.cache_hierarchy.ruby_system.RequestType.ST.latency_hist_seqr::stdev    11.852807                       (Unspecified)
board.cache_hierarchy.ruby_system.RequestType.ST.latency_hist_seqr |   150950726     99.99%     99.99% |       12305      0.01%    100.00% |        2003      0.00%    100.00% |         554      0.00%    100.00% |        3370      0.00%    100.00% |          35      0.00%    100.00% |          32      0.00%    100.00% |           2      0.00%    100.00% |           0      0.00%    100.00% |           0      0.00%    100.00% (Unspecified)
board.cache_hierarchy.ruby_system.RequestType.ST.latency_hist_seqr::total    150969027                       (Unspecified)
board.cache_hierarchy.ruby_system.RequestType.ST.hit_latency_hist_seqr::bucket_size            1                       (Unspecified)
board.cache_hierarchy.ruby_system.RequestType.ST.hit_latency_hist_seqr::max_bucket            9                       (Unspecified)
board.cache_hierarchy.ruby_system.RequestType.ST.hit_latency_hist_seqr::samples    122823822                       (Unspecified)
board.cache_hierarchy.ruby_system.RequestType.ST.hit_latency_hist_seqr::mean            1                       (Unspecified)
board.cache_hierarchy.ruby_system.RequestType.ST.hit_latency_hist_seqr::gmean            1                       (Unspecified)
board.cache_hierarchy.ruby_system.RequestType.ST.hit_latency_hist_seqr |           0      0.00%      0.00% |   122823822    100.00%    100.00% |           0      0.00%    100.00% |           0      0.00%    100.00% |           0      0.00%    100.00% |           0      0.00%    100.00% |           0      0.00%    100.00% |           0      0.00%    100.00% |           0      0.00%    100.00% |           0      0.00%    100.00% (Unspecified)
board.cache_hierarchy.ruby_system.RequestType.ST.hit_latency_hist_seqr::total    122823822                       (Unspecified)
board.cache_hierarchy.ruby_system.RequestType.ST.miss_latency_hist_seqr::bucket_size          256                       (Unspecified)
board.cache_hierarchy.ruby_system.RequestType.ST.miss_latency_hist_seqr::max_bucket         2559                       (Unspecified)
board.cache_hierarchy.ruby_system.RequestType.ST.miss_latency_hist_seqr::samples     28145205                       (Unspecified)
board.cache_hierarchy.ruby_system.RequestType.ST.miss_latency_hist_seqr::mean    15.997432                       (Unspecified)
board.cache_hierarchy.ruby_system.RequestType.ST.miss_latency_hist_seqr::gmean    14.104171                       (Unspecified)
board.cache_hierarchy.ruby_system.RequestType.ST.miss_latency_hist_seqr::stdev    23.886889                       (Unspecified)
board.cache_hierarchy.ruby_system.RequestType.ST.miss_latency_hist_seqr |    28126904     99.93%     99.93% |       12305      0.04%     99.98% |        2003      0.01%     99.99% |         554      0.00%     99.99% |        3370      0.01%    100.00% |          35      0.00%    100.00% |          32      0.00%    100.00% |           2      0.00%    100.00% |           0      0.00%    100.00% |           0      0.00%    100.00% (Unspecified)
board.cache_hierarchy.ruby_system.RequestType.ST.miss_latency_hist_seqr::total     28145205                       (Unspecified)
board.cache_hierarchy.ruby_system.RequestType.IFETCH.latency_hist_seqr::bucket_size          256                       (Unspecified)
board.cache_hierarchy.ruby_system.RequestType.IFETCH.latency_hist_seqr::max_bucket         2559                       (Unspecified)
board.cache_hierarchy.ruby_system.RequestType.IFETCH.latency_hist_seqr::samples   1392526432                       (Unspecified)
board.cache_hierarchy.ruby_system.RequestType.IFETCH.latency_hist_seqr::mean     1.996031                       (Unspecified)
board.cache_hierarchy.ruby_system.RequestType.IFETCH.latency_hist_seqr::gmean     1.233427                       (Unspecified)
board.cache_hierarchy.ruby_system.RequestType.IFETCH.latency_hist_seqr::stdev     3.895624                       (Unspecified)
board.cache_hierarchy.ruby_system.RequestType.IFETCH.latency_hist_seqr |  1392519555    100.00%    100.00% |        4734      0.00%    100.00% |         518      0.00%    100.00% |         400      0.00%    100.00% |        1188      0.00%    100.00% |          21      0.00%    100.00% |          16      0.00%    100.00% |           0      0.00%    100.00% |           0      0.00%    100.00% |           0      0.00%    100.00% (Unspecified)
board.cache_hierarchy.ruby_system.RequestType.IFETCH.latency_hist_seqr::total   1392526432                       (Unspecified)
board.cache_hierarchy.ruby_system.RequestType.IFETCH.hit_latency_hist_seqr::bucket_size            1                       (Unspecified)
board.cache_hierarchy.ruby_system.RequestType.IFETCH.hit_latency_hist_seqr::max_bucket            9                       (Unspecified)
board.cache_hierarchy.ruby_system.RequestType.IFETCH.hit_latency_hist_seqr::samples   1278755222                       (Unspecified)
board.cache_hierarchy.ruby_system.RequestType.IFETCH.hit_latency_hist_seqr::mean            1                       (Unspecified)
board.cache_hierarchy.ruby_system.RequestType.IFETCH.hit_latency_hist_seqr::gmean            1                       (Unspecified)
board.cache_hierarchy.ruby_system.RequestType.IFETCH.hit_latency_hist_seqr |           0      0.00%      0.00% |  1278755222    100.00%    100.00% |           0      0.00%    100.00% |           0      0.00%    100.00% |           0      0.00%    100.00% |           0      0.00%    100.00% |           0      0.00%    100.00% |           0      0.00%    100.00% |           0      0.00%    100.00% |           0      0.00%    100.00% (Unspecified)
board.cache_hierarchy.ruby_system.RequestType.IFETCH.hit_latency_hist_seqr::total   1278755222                       (Unspecified)
board.cache_hierarchy.ruby_system.RequestType.IFETCH.miss_latency_hist_seqr::bucket_size          256                       (Unspecified)
board.cache_hierarchy.ruby_system.RequestType.IFETCH.miss_latency_hist_seqr::max_bucket         2559                       (Unspecified)
board.cache_hierarchy.ruby_system.RequestType.IFETCH.miss_latency_hist_seqr::samples    113771210                       (Unspecified)
board.cache_hierarchy.ruby_system.RequestType.IFETCH.miss_latency_hist_seqr::mean    13.191134                       (Unspecified)
board.cache_hierarchy.ruby_system.RequestType.IFETCH.miss_latency_hist_seqr::gmean    13.037747                       (Unspecified)
board.cache_hierarchy.ruby_system.RequestType.IFETCH.miss_latency_hist_seqr::stdev     7.019076                       (Unspecified)
board.cache_hierarchy.ruby_system.RequestType.IFETCH.miss_latency_hist_seqr |   113764333     99.99%     99.99% |        4734      0.00%    100.00% |         518      0.00%    100.00% |         400      0.00%    100.00% |        1188      0.00%    100.00% |          21      0.00%    100.00% |          16      0.00%    100.00% |           0      0.00%    100.00% |           0      0.00%    100.00% |           0      0.00%    100.00% (Unspecified)
board.cache_hierarchy.ruby_system.RequestType.IFETCH.miss_latency_hist_seqr::total    113771210                       (Unspecified)
board.cache_hierarchy.ruby_system.RequestType.RMW_Read.latency_hist_seqr::bucket_size          256                       (Unspecified)
board.cache_hierarchy.ruby_system.RequestType.RMW_Read.latency_hist_seqr::max_bucket         2559                       (Unspecified)
board.cache_hierarchy.ruby_system.RequestType.RMW_Read.latency_hist_seqr::samples      6085549                       (Unspecified)
board.cache_hierarchy.ruby_system.RequestType.RMW_Read.latency_hist_seqr::mean     7.548062                       (Unspecified)
board.cache_hierarchy.ruby_system.RequestType.RMW_Read.latency_hist_seqr::gmean     3.570270                       (Unspecified)
board.cache_hierarchy.ruby_system.RequestType.RMW_Read.latency_hist_seqr::stdev    11.715214                       (Unspecified)
board.cache_hierarchy.ruby_system.RequestType.RMW_Read.latency_hist_seqr |     6084946     99.99%     99.99% |         394      0.01%    100.00% |          52      0.00%    100.00% |          39      0.00%    100.00% |         115      0.00%    100.00% |           1      0.00%    100.00% |           2      0.00%    100.00% |           0      0.00%    100.00% |           0      0.00%    100.00% |           0      0.00%    100.00% (Unspecified)
board.cache_hierarchy.ruby_system.RequestType.RMW_Read.latency_hist_seqr::total      6085549                       (Unspecified)
board.cache_hierarchy.ruby_system.RequestType.RMW_Read.hit_latency_hist_seqr::bucket_size            1                       (Unspecified)
board.cache_hierarchy.ruby_system.RequestType.RMW_Read.hit_latency_hist_seqr::max_bucket            9                       (Unspecified)
board.cache_hierarchy.ruby_system.RequestType.RMW_Read.hit_latency_hist_seqr::samples      3141158                       (Unspecified)
board.cache_hierarchy.ruby_system.RequestType.RMW_Read.hit_latency_hist_seqr::mean            1                       (Unspecified)
board.cache_hierarchy.ruby_system.RequestType.RMW_Read.hit_latency_hist_seqr::gmean            1                       (Unspecified)
board.cache_hierarchy.ruby_system.RequestType.RMW_Read.hit_latency_hist_seqr |           0      0.00%      0.00% |     3141158    100.00%    100.00% |           0      0.00%    100.00% |           0      0.00%    100.00% |           0      0.00%    100.00% |           0      0.00%    100.00% |           0      0.00%    100.00% |           0      0.00%    100.00% |           0      0.00%    100.00% |           0      0.00%    100.00% (Unspecified)
board.cache_hierarchy.ruby_system.RequestType.RMW_Read.hit_latency_hist_seqr::total      3141158                       (Unspecified)
board.cache_hierarchy.ruby_system.RequestType.RMW_Read.miss_latency_hist_seqr::bucket_size          256                       (Unspecified)
board.cache_hierarchy.ruby_system.RequestType.RMW_Read.miss_latency_hist_seqr::max_bucket         2559                       (Unspecified)
board.cache_hierarchy.ruby_system.RequestType.RMW_Read.miss_latency_hist_seqr::samples      2944391                       (Unspecified)
board.cache_hierarchy.ruby_system.RequestType.RMW_Read.miss_latency_hist_seqr::mean    14.533717                       (Unspecified)
board.cache_hierarchy.ruby_system.RequestType.RMW_Read.miss_latency_hist_seqr::gmean    13.878349                       (Unspecified)
board.cache_hierarchy.ruby_system.RequestType.RMW_Read.miss_latency_hist_seqr::stdev    13.752181                       (Unspecified)
board.cache_hierarchy.ruby_system.RequestType.RMW_Read.miss_latency_hist_seqr |     2943788     99.98%     99.98% |         394      0.01%     99.99% |          52      0.00%     99.99% |          39      0.00%    100.00% |         115      0.00%    100.00% |           1      0.00%    100.00% |           2      0.00%    100.00% |           0      0.00%    100.00% |           0      0.00%    100.00% |           0      0.00%    100.00% (Unspecified)
board.cache_hierarchy.ruby_system.RequestType.RMW_Read.miss_latency_hist_seqr::total      2944391                       (Unspecified)
board.cache_hierarchy.ruby_system.RequestType.Locked_RMW_Read.latency_hist_seqr::bucket_size          256                       (Unspecified)
board.cache_hierarchy.ruby_system.RequestType.Locked_RMW_Read.latency_hist_seqr::max_bucket         2559                       (Unspecified)
board.cache_hierarchy.ruby_system.RequestType.Locked_RMW_Read.latency_hist_seqr::samples       353004                       (Unspecified)
board.cache_hierarchy.ruby_system.RequestType.Locked_RMW_Read.latency_hist_seqr::mean    16.200389                       (Unspecified)
board.cache_hierarchy.ruby_system.RequestType.Locked_RMW_Read.latency_hist_seqr::gmean     3.001793                       (Unspecified)
board.cache_hierarchy.ruby_system.RequestType.Locked_RMW_Read.latency_hist_seqr::stdev    55.224397                       (Unspecified)
board.cache_hierarchy.ruby_system.RequestType.Locked_RMW_Read.latency_hist_seqr |      351565     99.59%     99.59% |         755      0.21%     99.81% |         280      0.08%     99.89% |         195      0.06%     99.94% |         205      0.06%    100.00% |           2      0.00%    100.00% |           2      0.00%    100.00% |           0      0.00%    100.00% |           0      0.00%    100.00% |           0      0.00%    100.00% (Unspecified)
board.cache_hierarchy.ruby_system.RequestType.Locked_RMW_Read.latency_hist_seqr::total       353004                       (Unspecified)
board.cache_hierarchy.ruby_system.RequestType.Locked_RMW_Read.hit_latency_hist_seqr::bucket_size            1                       (Unspecified)
board.cache_hierarchy.ruby_system.RequestType.Locked_RMW_Read.hit_latency_hist_seqr::max_bucket            9                       (Unspecified)
board.cache_hierarchy.ruby_system.RequestType.Locked_RMW_Read.hit_latency_hist_seqr::samples       226697                       (Unspecified)
board.cache_hierarchy.ruby_system.RequestType.Locked_RMW_Read.hit_latency_hist_seqr::mean            1                       (Unspecified)
board.cache_hierarchy.ruby_system.RequestType.Locked_RMW_Read.hit_latency_hist_seqr::gmean            1                       (Unspecified)
board.cache_hierarchy.ruby_system.RequestType.Locked_RMW_Read.hit_latency_hist_seqr |           0      0.00%      0.00% |      226697    100.00%    100.00% |           0      0.00%    100.00% |           0      0.00%    100.00% |           0      0.00%    100.00% |           0      0.00%    100.00% |           0      0.00%    100.00% |           0      0.00%    100.00% |           0      0.00%    100.00% |           0      0.00%    100.00% (Unspecified)
board.cache_hierarchy.ruby_system.RequestType.Locked_RMW_Read.hit_latency_hist_seqr::total       226697                       (Unspecified)
board.cache_hierarchy.ruby_system.RequestType.Locked_RMW_Read.miss_latency_hist_seqr::bucket_size          256                       (Unspecified)
board.cache_hierarchy.ruby_system.RequestType.Locked_RMW_Read.miss_latency_hist_seqr::max_bucket         2559                       (Unspecified)
board.cache_hierarchy.ruby_system.RequestType.Locked_RMW_Read.miss_latency_hist_seqr::samples       126307                       (Unspecified)
board.cache_hierarchy.ruby_system.RequestType.Locked_RMW_Read.miss_latency_hist_seqr::mean    43.482190                       (Unspecified)
board.cache_hierarchy.ruby_system.RequestType.Locked_RMW_Read.miss_latency_hist_seqr::gmean    21.586805                       (Unspecified)
board.cache_hierarchy.ruby_system.RequestType.Locked_RMW_Read.miss_latency_hist_seqr::stdev    85.816485                       (Unspecified)
board.cache_hierarchy.ruby_system.RequestType.Locked_RMW_Read.miss_latency_hist_seqr |      124868     98.86%     98.86% |         755      0.60%     99.46% |         280      0.22%     99.68% |         195      0.15%     99.83% |         205      0.16%    100.00% |           2      0.00%    100.00% |           2      0.00%    100.00% |           0      0.00%    100.00% |           0      0.00%    100.00% |           0      0.00%    100.00% (Unspecified)
board.cache_hierarchy.ruby_system.RequestType.Locked_RMW_Read.miss_latency_hist_seqr::total       126307                       (Unspecified)
board.cache_hierarchy.ruby_system.RequestType.Locked_RMW_Write.latency_hist_seqr::bucket_size            1                       (Unspecified)
board.cache_hierarchy.ruby_system.RequestType.Locked_RMW_Write.latency_hist_seqr::max_bucket            9                       (Unspecified)
board.cache_hierarchy.ruby_system.RequestType.Locked_RMW_Write.latency_hist_seqr::samples       353004                       (Unspecified)
board.cache_hierarchy.ruby_system.RequestType.Locked_RMW_Write.latency_hist_seqr::mean            1                       (Unspecified)
board.cache_hierarchy.ruby_system.RequestType.Locked_RMW_Write.latency_hist_seqr::gmean            1                       (Unspecified)
board.cache_hierarchy.ruby_system.RequestType.Locked_RMW_Write.latency_hist_seqr |           0      0.00%      0.00% |      353004    100.00%    100.00% |           0      0.00%    100.00% |           0      0.00%    100.00% |           0      0.00%    100.00% |           0      0.00%    100.00% |           0      0.00%    100.00% |           0      0.00%    100.00% |           0      0.00%    100.00% |           0      0.00%    100.00% (Unspecified)
board.cache_hierarchy.ruby_system.RequestType.Locked_RMW_Write.latency_hist_seqr::total       353004                       (Unspecified)
board.cache_hierarchy.ruby_system.RequestType.Locked_RMW_Write.hit_latency_hist_seqr::bucket_size            1                       (Unspecified)
board.cache_hierarchy.ruby_system.RequestType.Locked_RMW_Write.hit_latency_hist_seqr::max_bucket            9                       (Unspecified)
board.cache_hierarchy.ruby_system.RequestType.Locked_RMW_Write.hit_latency_hist_seqr::samples       353004                       (Unspecified)
board.cache_hierarchy.ruby_system.RequestType.Locked_RMW_Write.hit_latency_hist_seqr::mean            1                       (Unspecified)
board.cache_hierarchy.ruby_system.RequestType.Locked_RMW_Write.hit_latency_hist_seqr::gmean            1                       (Unspecified)
board.cache_hierarchy.ruby_system.RequestType.Locked_RMW_Write.hit_latency_hist_seqr |           0      0.00%      0.00% |      353004    100.00%    100.00% |           0      0.00%    100.00% |           0      0.00%    100.00% |           0      0.00%    100.00% |           0      0.00%    100.00% |           0      0.00%    100.00% |           0      0.00%    100.00% |           0      0.00%    100.00% |           0      0.00%    100.00% (Unspecified)
board.cache_hierarchy.ruby_system.RequestType.Locked_RMW_Write.hit_latency_hist_seqr::total       353004                       (Unspecified)
board.cache_hierarchy.ruby_system.directory_controllers0.power_state.pwrStateResidencyTicks::UNDEFINED 115342285462462                       # Cumulative time (in ticks) in various power states (Tick)
board.cache_hierarchy.ruby_system.directory_controllers0.requestToDir.m_msg_count       674202                       # Number of messages passed the buffer (Count)
board.cache_hierarchy.ruby_system.directory_controllers0.requestToDir.m_buf_msgs     0.000093                       # Average number of messages in buffer ((Count/Tick))
board.cache_hierarchy.ruby_system.directory_controllers0.requestToMemory.m_msg_count      1070880                       # Number of messages passed the buffer (Count)
board.cache_hierarchy.ruby_system.directory_controllers0.requestToMemory.m_buf_msgs     0.000149                       # Average number of messages in buffer ((Count/Tick))
board.cache_hierarchy.ruby_system.directory_controllers0.requestToMemory.m_stall_time      2885169                       # Total number of ticks messages were stalled in this buffer (Tick)
board.cache_hierarchy.ruby_system.directory_controllers0.requestToMemory.m_avg_stall_time     2.694204                       # Average stall ticks per message ((Tick/Count))
board.cache_hierarchy.ruby_system.directory_controllers0.responseFromDir.m_msg_count      1347923                       # Number of messages passed the buffer (Count)
board.cache_hierarchy.ruby_system.directory_controllers0.responseFromDir.m_buf_msgs     0.000187                       # Average number of messages in buffer ((Count/Tick))
board.cache_hierarchy.ruby_system.directory_controllers0.responseFromMemory.m_msg_count      1070880                       # Number of messages passed the buffer (Count)
board.cache_hierarchy.ruby_system.directory_controllers0.responseFromMemory.m_buf_msgs     0.000256                       # Average number of messages in buffer ((Count/Tick))
board.cache_hierarchy.ruby_system.directory_controllers0.responseToDir.m_msg_count       673717                       # Number of messages passed the buffer (Count)
board.cache_hierarchy.ruby_system.directory_controllers0.responseToDir.m_buf_msgs     0.000093                       # Average number of messages in buffer ((Count/Tick))
board.cache_hierarchy.ruby_system.directory_controllers1.power_state.pwrStateResidencyTicks::UNDEFINED 115342285462462                       # Cumulative time (in ticks) in various power states (Tick)
board.cache_hierarchy.ruby_system.directory_controllers1.requestToDir.m_msg_count       675390                       # Number of messages passed the buffer (Count)
board.cache_hierarchy.ruby_system.directory_controllers1.requestToDir.m_buf_msgs     0.000094                       # Average number of messages in buffer ((Count/Tick))
board.cache_hierarchy.ruby_system.directory_controllers1.requestToMemory.m_msg_count      1072016                       # Number of messages passed the buffer (Count)
board.cache_hierarchy.ruby_system.directory_controllers1.requestToMemory.m_buf_msgs     0.000152                       # Average number of messages in buffer ((Count/Tick))
board.cache_hierarchy.ruby_system.directory_controllers1.requestToMemory.m_stall_time      8551420                       # Total number of ticks messages were stalled in this buffer (Tick)
board.cache_hierarchy.ruby_system.directory_controllers1.requestToMemory.m_avg_stall_time     7.976952                       # Average stall ticks per message ((Tick/Count))
board.cache_hierarchy.ruby_system.directory_controllers1.responseFromDir.m_msg_count      1350300                       # Number of messages passed the buffer (Count)
board.cache_hierarchy.ruby_system.directory_controllers1.responseFromDir.m_buf_msgs     0.000187                       # Average number of messages in buffer ((Count/Tick))
board.cache_hierarchy.ruby_system.directory_controllers1.responseFromMemory.m_msg_count      1072016                       # Number of messages passed the buffer (Count)
board.cache_hierarchy.ruby_system.directory_controllers1.responseFromMemory.m_buf_msgs     0.000257                       # Average number of messages in buffer ((Count/Tick))
board.cache_hierarchy.ruby_system.directory_controllers1.responseToDir.m_msg_count       674910                       # Number of messages passed the buffer (Count)
board.cache_hierarchy.ruby_system.directory_controllers1.responseToDir.m_buf_msgs     0.000093                       # Average number of messages in buffer ((Count/Tick))
board.cache_hierarchy.ruby_system.dma_controllers0.dma_sequencer.power_state.pwrStateResidencyTicks::UNDEFINED 115342285462462                       # Cumulative time (in ticks) in various power states (Tick)
board.cache_hierarchy.ruby_system.dma_controllers0.mandatoryQueue.m_msg_count          965                       # Number of messages passed the buffer (Count)
board.cache_hierarchy.ruby_system.dma_controllers0.mandatoryQueue.m_buf_msgs     0.000000                       # Average number of messages in buffer ((Count/Tick))
board.cache_hierarchy.ruby_system.dma_controllers0.power_state.pwrStateResidencyTicks::UNDEFINED 115342285462462                       # Cumulative time (in ticks) in various power states (Tick)
board.cache_hierarchy.ruby_system.dma_controllers0.requestToDir.m_msg_count          965                       # Number of messages passed the buffer (Count)
board.cache_hierarchy.ruby_system.dma_controllers0.requestToDir.m_buf_msgs     0.000001                       # Average number of messages in buffer ((Count/Tick))
board.cache_hierarchy.ruby_system.dma_controllers0.responseFromDir.m_msg_count          965                       # Number of messages passed the buffer (Count)
board.cache_hierarchy.ruby_system.dma_controllers0.responseFromDir.m_buf_msgs     0.000000                       # Average number of messages in buffer ((Count/Tick))
board.cache_hierarchy.ruby_system.dma_controllers1.dma_sequencer.power_state.pwrStateResidencyTicks::UNDEFINED 115342285462462                       # Cumulative time (in ticks) in various power states (Tick)
board.cache_hierarchy.ruby_system.dma_controllers1.power_state.pwrStateResidencyTicks::UNDEFINED 115342285462462                       # Cumulative time (in ticks) in various power states (Tick)
board.cache_hierarchy.ruby_system.l1_controllers0.fullyBusyCycles        28299                       # cycles for which number of transistions == max transitions (Unspecified)
board.cache_hierarchy.ruby_system.l1_controllers0.delayHistogram::samples    423924778                       # delay_histogram (Unspecified)
board.cache_hierarchy.ruby_system.l1_controllers0.delayHistogram::mean     0.000611                       # delay_histogram (Unspecified)
board.cache_hierarchy.ruby_system.l1_controllers0.delayHistogram::stdev     0.080259                       # delay_histogram (Unspecified)
board.cache_hierarchy.ruby_system.l1_controllers0.delayHistogram::0-1    423893201     99.99%     99.99% # delay_histogram (Unspecified)
board.cache_hierarchy.ruby_system.l1_controllers0.delayHistogram::2-3         2055      0.00%     99.99% # delay_histogram (Unspecified)
board.cache_hierarchy.ruby_system.l1_controllers0.delayHistogram::4-5         4484      0.00%     99.99% # delay_histogram (Unspecified)
board.cache_hierarchy.ruby_system.l1_controllers0.delayHistogram::6-7         4601      0.00%    100.00% # delay_histogram (Unspecified)
board.cache_hierarchy.ruby_system.l1_controllers0.delayHistogram::8-9        15007      0.00%    100.00% # delay_histogram (Unspecified)
board.cache_hierarchy.ruby_system.l1_controllers0.delayHistogram::10-11         1047      0.00%    100.00% # delay_histogram (Unspecified)
board.cache_hierarchy.ruby_system.l1_controllers0.delayHistogram::18-19         4383      0.00%    100.00% # delay_histogram (Unspecified)
board.cache_hierarchy.ruby_system.l1_controllers0.delayHistogram::total    423924778                       # delay_histogram (Unspecified)
board.cache_hierarchy.ruby_system.l1_controllers0.L1Dcache.m_demand_hits    289727498                       # Number of cache demand hits (Unspecified)
board.cache_hierarchy.ruby_system.l1_controllers0.L1Dcache.m_demand_misses    157398457                       # Number of cache demand misses (Unspecified)
board.cache_hierarchy.ruby_system.l1_controllers0.L1Dcache.m_demand_accesses    447125955                       # Number of cache demand accesses (Unspecified)
board.cache_hierarchy.ruby_system.l1_controllers0.L1Icache.m_demand_hits   1243924255                       # Number of cache demand hits (Unspecified)
board.cache_hierarchy.ruby_system.l1_controllers0.L1Icache.m_demand_misses    111222420                       # Number of cache demand misses (Unspecified)
board.cache_hierarchy.ruby_system.l1_controllers0.L1Icache.m_demand_accesses   1355146675                       # Number of cache demand accesses (Unspecified)
board.cache_hierarchy.ruby_system.l1_controllers0.mandatoryQueue.m_msg_count   1802272630                       # Number of messages passed the buffer (Count)
board.cache_hierarchy.ruby_system.l1_controllers0.mandatoryQueue.m_buf_msgs     0.253598                       # Average number of messages in buffer ((Count/Tick))
board.cache_hierarchy.ruby_system.l1_controllers0.mandatoryQueue.m_stall_time        18648                       # Total number of ticks messages were stalled in this buffer (Tick)
[...]
board.processor.switch1.core.commitStats0.committedInstType::IntDiv        88035      0.16%     77.47% # Class of committed instruction. (Count)
board.processor.switch1.core.commitStats0.committedInstType::FloatAdd         1300      0.00%     77.47% # Class of committed instruction. (Count)
board.processor.switch1.core.commitStats0.committedInstType::FloatCmp            0      0.00%     77.47% # Class of committed instruction. (Count)
board.processor.switch1.core.commitStats0.committedInstType::FloatCvt         1216      0.00%     77.48% # Class of committed instruction. (Count)
board.processor.switch1.core.commitStats0.committedInstType::FloatMult            0      0.00%     77.48% # Class of committed instruction. (Count)
board.processor.switch1.core.commitStats0.committedInstType::FloatMultAcc            0      0.00%     77.48% # Class of committed instruction. (Count)
board.processor.switch1.core.commitStats0.committedInstType::FloatDiv            0      0.00%     77.48% # Class of committed instruction. (Count)
board.processor.switch1.core.commitStats0.committedInstType::FloatMisc            0      0.00%     77.48% # Class of committed instruction. (Count)
board.processor.switch1.core.commitStats0.committedInstType::FloatSqrt            0      0.00%     77.48% # Class of committed instruction. (Count)
board.processor.switch1.core.commitStats0.committedInstType::SimdAdd         4348      0.01%     77.48% # Class of committed instruction. (Count)
board.processor.switch1.core.commitStats0.committedInstType::SimdAddAcc            0      0.00%     77.48% # Class of committed instruction. (Count)
board.processor.switch1.core.commitStats0.committedInstType::SimdAlu        64243      0.11%     77.60% # Class of committed instruction. (Count)
board.processor.switch1.core.commitStats0.committedInstType::SimdCmp          546      0.00%     77.60% # Class of committed instruction. (Count)
board.processor.switch1.core.commitStats0.committedInstType::SimdCvt         9174      0.02%     77.62% # Class of committed instruction. (Count)
board.processor.switch1.core.commitStats0.committedInstType::SimdMisc         8682      0.02%     77.63% # Class of committed instruction. (Count)
board.processor.switch1.core.commitStats0.committedInstType::SimdMult            0      0.00%     77.63% # Class of committed instruction. (Count)
board.processor.switch1.core.commitStats0.committedInstType::SimdMultAcc            0      0.00%     77.63% # Class of committed instruction. (Count)
board.processor.switch1.core.commitStats0.committedInstType::SimdMatMultAcc            0      0.00%     77.63% # Class of committed instruction. (Count)
board.processor.switch1.core.commitStats0.committedInstType::SimdShift          825      0.00%     77.63% # Class of committed instruction. (Count)
board.processor.switch1.core.commitStats0.committedInstType::SimdShiftAcc            0      0.00%     77.63% # Class of committed instruction. (Count)
board.processor.switch1.core.commitStats0.committedInstType::SimdDiv            0      0.00%     77.63% # Class of committed instruction. (Count)
board.processor.switch1.core.commitStats0.committedInstType::SimdSqrt            0      0.00%     77.63% # Class of committed instruction. (Count)
board.processor.switch1.core.commitStats0.committedInstType::SimdFloatAdd           78      0.00%     77.63% # Class of committed instruction. (Count)
board.processor.switch1.core.commitStats0.committedInstType::SimdFloatAlu            0      0.00%     77.63% # Class of committed instruction. (Count)
board.processor.switch1.core.commitStats0.committedInstType::SimdFloatCmp            0      0.00%     77.63% # Class of committed instruction. (Count)
board.processor.switch1.core.commitStats0.committedInstType::SimdFloatCvt          486      0.00%     77.63% # Class of committed instruction. (Count)
board.processor.switch1.core.commitStats0.committedInstType::SimdFloatDiv           30      0.00%     77.63% # Class of committed instruction. (Count)
board.processor.switch1.core.commitStats0.committedInstType::SimdFloatMisc            0      0.00%     77.63% # Class of committed instruction. (Count)
board.processor.switch1.core.commitStats0.committedInstType::SimdFloatMult           48      0.00%     77.63% # Class of committed instruction. (Count)
board.processor.switch1.core.commitStats0.committedInstType::SimdFloatMultAcc            0      0.00%     77.63% # Class of committed instruction. (Count)
board.processor.switch1.core.commitStats0.committedInstType::SimdFloatMatMultAcc            0      0.00%     77.63% # Class of committed instruction. (Count)
board.processor.switch1.core.commitStats0.committedInstType::SimdFloatSqrt            0      0.00%     77.63% # Class of committed instruction. (Count)
board.processor.switch1.core.commitStats0.committedInstType::SimdReduceAdd            0      0.00%     77.63% # Class of committed instruction. (Count)
board.processor.switch1.core.commitStats0.committedInstType::SimdReduceAlu            0      0.00%     77.63% # Class of committed instruction. (Count)
board.processor.switch1.core.commitStats0.committedInstType::SimdReduceCmp            0      0.00%     77.63% # Class of committed instruction. (Count)
board.processor.switch1.core.commitStats0.committedInstType::SimdFloatReduceAdd            0      0.00%     77.63% # Class of committed instruction. (Count)
board.processor.switch1.core.commitStats0.committedInstType::SimdFloatReduceCmp            0      0.00%     77.63% # Class of committed instruction. (Count)
board.processor.switch1.core.commitStats0.committedInstType::SimdAes            0      0.00%     77.63% # Class of committed instruction. (Count)
board.processor.switch1.core.commitStats0.committedInstType::SimdAesMix            0      0.00%     77.63% # Class of committed instruction. (Count)
board.processor.switch1.core.commitStats0.committedInstType::SimdSha1Hash            0      0.00%     77.63% # Class of committed instruction. (Count)
board.processor.switch1.core.commitStats0.committedInstType::SimdSha1Hash2            0      0.00%     77.63% # Class of committed instruction. (Count)
board.processor.switch1.core.commitStats0.committedInstType::SimdSha256Hash            0      0.00%     77.63% # Class of committed instruction. (Count)
board.processor.switch1.core.commitStats0.committedInstType::SimdSha256Hash2            0      0.00%     77.63% # Class of committed instruction. (Count)
board.processor.switch1.core.commitStats0.committedInstType::SimdShaSigma2            0      0.00%     77.63% # Class of committed instruction. (Count)
board.processor.switch1.core.commitStats0.committedInstType::SimdShaSigma3            0      0.00%     77.63% # Class of committed instruction. (Count)
board.processor.switch1.core.commitStats0.committedInstType::SimdPredAlu            0      0.00%     77.63% # Class of committed instruction. (Count)
board.processor.switch1.core.commitStats0.committedInstType::Matrix            0      0.00%     77.63% # Class of committed instruction. (Count)
board.processor.switch1.core.commitStats0.committedInstType::MatrixMov            0      0.00%     77.63% # Class of committed instruction. (Count)
board.processor.switch1.core.commitStats0.committedInstType::MatrixOP            0      0.00%     77.63% # Class of committed instruction. (Count)
board.processor.switch1.core.commitStats0.committedInstType::MemRead      7738773     13.85%     91.48% # Class of committed instruction. (Count)
board.processor.switch1.core.commitStats0.committedInstType::MemWrite      4480870      8.02%     99.50% # Class of committed instruction. (Count)
board.processor.switch1.core.commitStats0.committedInstType::FloatMemRead       124711      0.22%     99.72% # Class of committed instruction. (Count)
board.processor.switch1.core.commitStats0.committedInstType::FloatMemWrite       155645      0.28%    100.00% # Class of committed instruction. (Count)
board.processor.switch1.core.commitStats0.committedInstType::IprAccess            0      0.00%    100.00% # Class of committed instruction. (Count)
board.processor.switch1.core.commitStats0.committedInstType::InstPrefetch            0      0.00%    100.00% # Class of committed instruction. (Count)
board.processor.switch1.core.commitStats0.committedInstType::SimdUnitStrideLoad            0      0.00%    100.00% # Class of committed instruction. (Count)
board.processor.switch1.core.commitStats0.committedInstType::SimdUnitStrideStore            0      0.00%    100.00% # Class of committed instruction. (Count)
board.processor.switch1.core.commitStats0.committedInstType::SimdUnitStrideMaskLoad            0      0.00%    100.00% # Class of committed instruction. (Count)
board.processor.switch1.core.commitStats0.committedInstType::SimdUnitStrideMaskStore            0      0.00%    100.00% # Class of committed instruction. (Count)
board.processor.switch1.core.commitStats0.committedInstType::SimdStridedLoad            0      0.00%    100.00% # Class of committed instruction. (Count)
board.processor.switch1.core.commitStats0.committedInstType::SimdStridedStore            0      0.00%    100.00% # Class of committed instruction. (Count)
board.processor.switch1.core.commitStats0.committedInstType::SimdIndexedLoad            0      0.00%    100.00% # Class of committed instruction. (Count)
board.processor.switch1.core.commitStats0.committedInstType::SimdIndexedStore            0      0.00%    100.00% # Class of committed instruction. (Count)
board.processor.switch1.core.commitStats0.committedInstType::SimdWholeRegisterLoad            0      0.00%    100.00% # Class of committed instruction. (Count)
board.processor.switch1.core.commitStats0.committedInstType::SimdWholeRegisterStore            0      0.00%    100.00% # Class of committed instruction. (Count)
board.processor.switch1.core.commitStats0.committedInstType::SimdUnitStrideFaultOnlyFirstLoad            0      0.00%    100.00% # Class of committed instruction. (Count)
board.processor.switch1.core.commitStats0.committedInstType::SimdUnitStrideSegmentedLoad            0      0.00%    100.00% # Class of committed instruction. (Count)
board.processor.switch1.core.commitStats0.committedInstType::SimdUnitStrideSegmentedStore            0      0.00%    100.00% # Class of committed instruction. (Count)
board.processor.switch1.core.commitStats0.committedInstType::SimdExt            0      0.00%    100.00% # Class of committed instruction. (Count)
board.processor.switch1.core.commitStats0.committedInstType::SimdFloatExt            0      0.00%    100.00% # Class of committed instruction. (Count)
board.processor.switch1.core.commitStats0.committedInstType::SimdConfig            0      0.00%    100.00% # Class of committed instruction. (Count)
board.processor.switch1.core.commitStats0.committedInstType::total     55888580                       # Class of committed instruction. (Count)
board.processor.switch1.core.commitStats0.committedControl::IsControl      6591351                       # Class of control type instructions committed (Count)
board.processor.switch1.core.commitStats0.committedControl::IsDirectControl      5992472                       # Class of control type instructions committed (Count)
board.processor.switch1.core.commitStats0.committedControl::IsIndirectControl       587842                       # Class of control type instructions committed (Count)
board.processor.switch1.core.commitStats0.committedControl::IsCondControl      4946012                       # Class of control type instructions committed (Count)
board.processor.switch1.core.commitStats0.committedControl::IsUncondControl      1642376                       # Class of control type instructions committed (Count)
board.processor.switch1.core.commitStats0.committedControl::IsCall       578932                       # Class of control type instructions committed (Count)
board.processor.switch1.core.commitStats0.committedControl::IsReturn       544417                       # Class of control type instructions committed (Count)
board.processor.switch1.core.exec_context.thread_0.numMatAluAccesses            0                       # Number of matrix alu accesses (Count)
board.processor.switch1.core.exec_context.thread_0.numCallsReturns      1123349                       # Number of times a function call or return occured (Count)
board.processor.switch1.core.exec_context.thread_0.numMatInsts            0                       # Number of matrix instructions (Count)
board.processor.switch1.core.exec_context.thread_0.numIdleCycles 7000780492.993366                       # Number of idle cycles (Cycle)
board.processor.switch1.core.exec_context.thread_0.numBusyCycles 223903872.006633                       # Number of busy cycles (Cycle)
board.processor.switch1.core.exec_context.thread_0.notIdleFraction     0.030992                       # Percentage of non-idle cycles (Ratio)
board.processor.switch1.core.exec_context.thread_0.idleFraction     0.969008                       # Percentage of idle cycles (Ratio)
board.processor.switch1.core.executeStats0.numInsts            0                       # Number of executed instructions (Count)
board.processor.switch1.core.executeStats0.numNop            0                       # Number of nop insts executed (Count)
board.processor.switch1.core.executeStats0.numBranches            0                       # Number of branches executed (Count)
board.processor.switch1.core.executeStats0.numLoadInsts            0                       # Number of load instructions executed (Count)
board.processor.switch1.core.executeStats0.numStoreInsts     12499999                       # Number of stores executed (Count)
board.processor.switch1.core.executeStats0.instRate            0                       # Inst execution rate ((Count/Cycle))
board.processor.switch1.core.executeStats0.numFpAluAccesses       377679                       # Number of float alu accesses (Count)
board.processor.switch1.core.executeStats0.numFpRegReads       355217                       # Number of times the floating registers were read (Count)
board.processor.switch1.core.executeStats0.numFpRegWrites       214870                       # Number of times the floating registers were written (Count)
board.processor.switch1.core.executeStats0.numIntAluAccesses     54866267                       # Number of integer alu accesses (Count)
board.processor.switch1.core.executeStats0.numIntRegReads     61165682                       # Number of times the integer registers were read (Count)
board.processor.switch1.core.executeStats0.numIntRegWrites     39189913                       # Number of times the integer registers were written (Count)
board.processor.switch1.core.executeStats0.numMemRefs     12499999                       # Number of memory refs (Count)
board.processor.switch1.core.executeStats0.numMiscRegReads     25629024                       # Number of times the Misc registers were read (Count)
board.processor.switch1.core.executeStats0.numMiscRegWrites       145092                       # Number of times the Misc registers were written (Count)
board.processor.switch1.core.executeStats0.numVecAluAccesses            0                       # Number of vector alu accesses (Count)
board.processor.switch1.core.executeStats0.numDiscardedOps            0                       # Number of ops (including micro ops) which were discarded before commit (Count)
board.processor.switch1.core.fetchStats0.numInsts     28257196                       # Number of instructions fetched (thread level) (Count)
board.processor.switch1.core.fetchStats0.numOps     55888580                       # Number of ops (including micro ops) fetched (thread level) (Count)
board.processor.switch1.core.fetchStats0.fetchRate     0.003911                       # Number of inst fetches per cycle ((Count/Cycle))
board.processor.switch1.core.fetchStats0.numBranches      6591351                       # Number of branches fetched (Count)
board.processor.switch1.core.fetchStats0.branchRate     0.000912                       # Number of branch fetches per cycle (Ratio)
board.processor.switch1.core.fetchStats0.numFetchSuspends            0                       # Number of times Execute suspended instruction fetching (Count)
board.processor.switch1.core.mmu.dtb.rdAccesses      7906792                       # TLB accesses on read requests (Count)
board.processor.switch1.core.mmu.dtb.wrAccesses      4642416                       # TLB accesses on write requests (Count)
board.processor.switch1.core.mmu.dtb.rdMisses        38994                       # TLB misses on read requests (Count)
board.processor.switch1.core.mmu.dtb.wrMisses         5128                       # TLB misses on write requests (Count)
board.processor.switch1.core.mmu.dtb.walker.power_state.pwrStateResidencyTicks::UNDEFINED 115342285462462                       # Cumulative time (in ticks) in various power states (Tick)
board.processor.switch1.core.mmu.itb.rdAccesses            0                       # TLB accesses on read requests (Count)
board.processor.switch1.core.mmu.itb.wrAccesses     37393092                       # TLB accesses on write requests (Count)
board.processor.switch1.core.mmu.itb.rdMisses            0                       # TLB misses on read requests (Count)
board.processor.switch1.core.mmu.itb.wrMisses        13334                       # TLB misses on write requests (Count)
board.processor.switch1.core.mmu.itb.walker.power_state.pwrStateResidencyTicks::UNDEFINED 115342285462462                       # Cumulative time (in ticks) in various power states (Tick)
board.processor.switch1.core.power_state.numTransitions         5438                       # Number of power state transitions (Count)
board.processor.switch1.core.power_state.ticksClkGated::samples         2720                       # Distribution of time spent in the clock gated state (Tick)
board.processor.switch1.core.power_state.ticksClkGated::mean 857109277.010662                       # Distribution of time spent in the clock gated state (Tick)
board.processor.switch1.core.power_state.ticksClkGated::stdev 338288371.918682                       # Distribution of time spent in the clock gated state (Tick)
board.processor.switch1.core.power_state.ticksClkGated::1000-5e+10         2720    100.00%    100.00% # Distribution of time spent in the clock gated state (Tick)
board.processor.switch1.core.power_state.ticksClkGated::min_value      1479187                       # Distribution of time spent in the clock gated state (Tick)
board.processor.switch1.core.power_state.ticksClkGated::max_value    996811857                       # Distribution of time spent in the clock gated state (Tick)
board.processor.switch1.core.power_state.ticksClkGated::total         2720                       # Distribution of time spent in the clock gated state (Tick)
board.processor.switch1.core.power_state.pwrStateResidencyTicks::ON  74536431252                       # Cumulative time (in ticks) in various power states (Tick)
board.processor.switch1.core.power_state.pwrStateResidencyTicks::CLK_GATED 2331337233469                       # Cumulative time (in ticks) in various power states (Tick)
board.processor.switch1.core.thread_0.numInsts            0                       # Number of Instructions committed (Count)
board.processor.switch1.core.thread_0.numOps            0                       # Number of Ops committed (Count)
board.processor.switch1.core.thread_0.numMemRefs            0                       # Number of Memory References (Count)
board.workload.inst.arm                             0                       # number of arm instructions executed (Count)
board.workload.inst.quiesce                         0                       # number of quiesce instructions executed (Count)

---------- End Simulation Statistics   ----------
