
---------- Begin Simulation Statistics ----------
simSeconds                                  17.752860                       # Number of seconds simulated (Second)
simTicks                                 17752859892144                       # Number of ticks simulated (Tick)
finalTick                                254950936289236                       # Number of ticks from beginning of simulation (restored from checkpoints and never reset) (Tick)
simFreq                                  1000000000000                       # The number of ticks per simulated second ((Tick/Second))
hostSeconds                                 140541.50                       # Real time elapsed on the host (Second)
hostTickRate                                126317564                       # The number of ticks simulated per host second (ticks/s) ((Tick/Second))
hostMemory                                    8921400                       # Number of bytes of host memory used (Byte)
simInsts                                  11242351744                       # Number of instructions simulated (Count)
simOps                                    16203161833                       # Number of ops (including micro ops) simulated (Count)
hostInstRate                                    79993                       # Simulator instruction rate (inst/s) ((Count/Second))
hostOpRate                                     115291                       # Simulator op (including micro ops) rate (op/s) ((Count/Second))
board.cache_hierarchy.ruby_system.delayHistogram::bucket_size            4                       # delay histogram for all message (Unspecified)
board.cache_hierarchy.ruby_system.delayHistogram::max_bucket           39                       # delay histogram for all message (Unspecified)
board.cache_hierarchy.ruby_system.delayHistogram::samples   4613123348                       # delay histogram for all message (Unspecified)
board.cache_hierarchy.ruby_system.delayHistogram::mean     0.126509                       # delay histogram for all message (Unspecified)
board.cache_hierarchy.ruby_system.delayHistogram::stdev     0.999541                       # delay histogram for all message (Unspecified)
board.cache_hierarchy.ruby_system.delayHistogram |  4540409430     98.42%     98.42% |      709184      0.02%     98.44% |    71875022      1.56%    100.00% |       34391      0.00%    100.00% |       95277      0.00%    100.00% |          26      0.00%    100.00% |          12      0.00%    100.00% |           6      0.00%    100.00% |           0      0.00%    100.00% |           0      0.00%    100.00% # delay histogram for all message (Unspecified)
board.cache_hierarchy.ruby_system.delayHistogram::total   4613123348                       # delay histogram for all message (Unspecified)
board.cache_hierarchy.ruby_system.m_outstandReqHistSeqr::bucket_size            1                       (Unspecified)
board.cache_hierarchy.ruby_system.m_outstandReqHistSeqr::max_bucket            9                       (Unspecified)
board.cache_hierarchy.ruby_system.m_outstandReqHistSeqr::samples  19578995801                       (Unspecified)
board.cache_hierarchy.ruby_system.m_outstandReqHistSeqr::mean     1.000003                       (Unspecified)
board.cache_hierarchy.ruby_system.m_outstandReqHistSeqr::gmean     1.000002                       (Unspecified)
board.cache_hierarchy.ruby_system.m_outstandReqHistSeqr::stdev     0.001671                       (Unspecified)
board.cache_hierarchy.ruby_system.m_outstandReqHistSeqr |           0      0.00%      0.00% | 19578941119    100.00%    100.00% |       54682      0.00%    100.00% |           0      0.00%    100.00% |           0      0.00%    100.00% |           0      0.00%    100.00% |           0      0.00%    100.00% |           0      0.00%    100.00% |           0      0.00%    100.00% |           0      0.00%    100.00% (Unspecified)
board.cache_hierarchy.ruby_system.m_outstandReqHistSeqr::total  19578995801                       (Unspecified)
board.cache_hierarchy.ruby_system.m_latencyHistSeqr::bucket_size          256                       (Unspecified)
board.cache_hierarchy.ruby_system.m_latencyHistSeqr::max_bucket         2559                       (Unspecified)
board.cache_hierarchy.ruby_system.m_latencyHistSeqr::samples  19578995801                       (Unspecified)
board.cache_hierarchy.ruby_system.m_latencyHistSeqr::mean     1.787575                       (Unspecified)
board.cache_hierarchy.ruby_system.m_latencyHistSeqr::gmean     1.175830                       (Unspecified)
board.cache_hierarchy.ruby_system.m_latencyHistSeqr::stdev     3.923214                       (Unspecified)
board.cache_hierarchy.ruby_system.m_latencyHistSeqr | 19578838640    100.00%    100.00% |       40710      0.00%    100.00% |       83886      0.00%    100.00% |       10037      0.00%    100.00% |       21429      0.00%    100.00% |          62      0.00%    100.00% |         573      0.00%    100.00% |         405      0.00%    100.00% |          52      0.00%    100.00% |           7      0.00%    100.00% (Unspecified)
board.cache_hierarchy.ruby_system.m_latencyHistSeqr::total  19578995801                       (Unspecified)
board.cache_hierarchy.ruby_system.m_hitLatencyHistSeqr::bucket_size            1                       (Unspecified)
board.cache_hierarchy.ruby_system.m_hitLatencyHistSeqr::max_bucket            9                       (Unspecified)
board.cache_hierarchy.ruby_system.m_hitLatencyHistSeqr::samples  18352593067                       (Unspecified)
board.cache_hierarchy.ruby_system.m_hitLatencyHistSeqr::mean            1                       (Unspecified)
board.cache_hierarchy.ruby_system.m_hitLatencyHistSeqr::gmean            1                       (Unspecified)
board.cache_hierarchy.ruby_system.m_hitLatencyHistSeqr |           0      0.00%      0.00% | 18352593067    100.00%    100.00% |           0      0.00%    100.00% |           0      0.00%    100.00% |           0      0.00%    100.00% |           0      0.00%    100.00% |           0      0.00%    100.00% |           0      0.00%    100.00% |           0      0.00%    100.00% |           0      0.00%    100.00% (Unspecified)
board.cache_hierarchy.ruby_system.m_hitLatencyHistSeqr::total  18352593067                       (Unspecified)
board.cache_hierarchy.ruby_system.m_missLatencyHistSeqr::bucket_size          256                       (Unspecified)
board.cache_hierarchy.ruby_system.m_missLatencyHistSeqr::max_bucket         2559                       (Unspecified)
board.cache_hierarchy.ruby_system.m_missLatencyHistSeqr::samples   1226402734                       (Unspecified)
board.cache_hierarchy.ruby_system.m_missLatencyHistSeqr::mean    13.573301                       (Unspecified)
board.cache_hierarchy.ruby_system.m_missLatencyHistSeqr::gmean    13.274587                       (Unspecified)
board.cache_hierarchy.ruby_system.m_missLatencyHistSeqr::stdev     9.875982                       (Unspecified)
board.cache_hierarchy.ruby_system.m_missLatencyHistSeqr |  1226245573     99.99%     99.99% |       40710      0.00%     99.99% |       83886      0.01%    100.00% |       10037      0.00%    100.00% |       21429      0.00%    100.00% |          62      0.00%    100.00% |         573      0.00%    100.00% |         405      0.00%    100.00% |          52      0.00%    100.00% |           7      0.00%    100.00% (Unspecified)
board.cache_hierarchy.ruby_system.m_missLatencyHistSeqr::total   1226402734                       (Unspecified)
board.cache_hierarchy.ruby_system.delayVCHist.vnet_0::bucket_size            4                       # delay histogram for vnet_0 (Unspecified)
board.cache_hierarchy.ruby_system.delayVCHist.vnet_0::max_bucket           39                       # delay histogram for vnet_0 (Unspecified)
board.cache_hierarchy.ruby_system.delayVCHist.vnet_0::samples   2663227658                       # delay histogram for vnet_0 (Unspecified)
board.cache_hierarchy.ruby_system.delayVCHist.vnet_0::mean     0.218733                       # delay histogram for vnet_0 (Unspecified)
board.cache_hierarchy.ruby_system.delayVCHist.vnet_0::stdev     1.306851                       # delay histogram for vnet_0 (Unspecified)
board.cache_hierarchy.ruby_system.delayVCHist.vnet_0 |  2590679304     97.28%     97.28% |      598784      0.02%     97.30% |    71821462      2.70%    100.00% |       34385      0.00%    100.00% |       93679      0.00%    100.00% |          26      0.00%    100.00% |          12      0.00%    100.00% |           6      0.00%    100.00% |           0      0.00%    100.00% |           0      0.00%    100.00% # delay histogram for vnet_0 (Unspecified)
board.cache_hierarchy.ruby_system.delayVCHist.vnet_0::total   2663227658                       # delay histogram for vnet_0 (Unspecified)
board.cache_hierarchy.ruby_system.delayVCHist.vnet_1::bucket_size            2                       # delay histogram for vnet_1 (Unspecified)
board.cache_hierarchy.ruby_system.delayVCHist.vnet_1::max_bucket           19                       # delay histogram for vnet_1 (Unspecified)
board.cache_hierarchy.ruby_system.delayVCHist.vnet_1::samples   1949792004                       # delay histogram for vnet_1 (Unspecified)
board.cache_hierarchy.ruby_system.delayVCHist.vnet_1::mean     0.000546                       # delay histogram for vnet_1 (Unspecified)
board.cache_hierarchy.ruby_system.delayVCHist.vnet_1::stdev     0.059432                       # delay histogram for vnet_1 (Unspecified)
board.cache_hierarchy.ruby_system.delayVCHist.vnet_1 |  1949595346     99.99%     99.99% |       31094      0.00%     99.99% |       58945      0.00%     99.99% |       51455      0.00%    100.00% |       52966      0.00%    100.00% |         594      0.00%    100.00% |           4      0.00%    100.00% |           2      0.00%    100.00% |           5      0.00%    100.00% |        1593      0.00%    100.00% # delay histogram for vnet_1 (Unspecified)
board.cache_hierarchy.ruby_system.delayVCHist.vnet_1::total   1949792004                       # delay histogram for vnet_1 (Unspecified)
board.cache_hierarchy.ruby_system.delayVCHist.vnet_2::bucket_size            1                       # delay histogram for vnet_2 (Unspecified)
board.cache_hierarchy.ruby_system.delayVCHist.vnet_2::max_bucket            9                       # delay histogram for vnet_2 (Unspecified)
board.cache_hierarchy.ruby_system.delayVCHist.vnet_2::samples       103686                       # delay histogram for vnet_2 (Unspecified)
board.cache_hierarchy.ruby_system.delayVCHist.vnet_2::mean     0.001061                       # delay histogram for vnet_2 (Unspecified)
board.cache_hierarchy.ruby_system.delayVCHist.vnet_2::stdev     0.046051                       # delay histogram for vnet_2 (Unspecified)
board.cache_hierarchy.ruby_system.delayVCHist.vnet_2 |      103631     99.95%     99.95% |           0      0.00%     99.95% |          55      0.05%    100.00% |           0      0.00%    100.00% |           0      0.00%    100.00% |           0      0.00%    100.00% |           0      0.00%    100.00% |           0      0.00%    100.00% |           0      0.00%    100.00% |           0      0.00%    100.00% # delay histogram for vnet_2 (Unspecified)
board.cache_hierarchy.ruby_system.delayVCHist.vnet_2::total       103686                       # delay histogram for vnet_2 (Unspecified)
board.cache_hierarchy.ruby_system.Directory_Controller.Fetch |     1226131     49.99%     49.99% |     1226456     50.01%    100.00% (Unspecified)
board.cache_hierarchy.ruby_system.Directory_Controller.Fetch::total      2452587                       (Unspecified)
board.cache_hierarchy.ruby_system.Directory_Controller.Data |     1003230     49.99%     49.99% |     1003696     50.01%    100.00% (Unspecified)
board.cache_hierarchy.ruby_system.Directory_Controller.Data::total      2006926                       (Unspecified)
board.cache_hierarchy.ruby_system.Directory_Controller.Memory_Data |     1226952     49.99%     49.99% |     1227257     50.01%    100.00% (Unspecified)
board.cache_hierarchy.ruby_system.Directory_Controller.Memory_Data::total      2454209                       (Unspecified)
board.cache_hierarchy.ruby_system.Directory_Controller.Memory_Ack |     1003294     49.99%     49.99% |     1003760     50.01%    100.00% (Unspecified)
board.cache_hierarchy.ruby_system.Directory_Controller.Memory_Ack::total      2007054                       (Unspecified)
board.cache_hierarchy.ruby_system.Directory_Controller.DMA_READ |        1992     50.40%     50.40% |        1960     49.60%    100.00% (Unspecified)
board.cache_hierarchy.ruby_system.Directory_Controller.DMA_READ::total         3952                       (Unspecified)
board.cache_hierarchy.ruby_system.Directory_Controller.DMA_WRITE |          64     50.00%     50.00% |          64     50.00%    100.00% (Unspecified)
board.cache_hierarchy.ruby_system.Directory_Controller.DMA_WRITE::total          128                       (Unspecified)
board.cache_hierarchy.ruby_system.Directory_Controller.CleanReplacement |      222901     50.02%     50.02% |      222760     49.98%    100.00% (Unspecified)
board.cache_hierarchy.ruby_system.Directory_Controller.CleanReplacement::total       445661                       (Unspecified)
board.cache_hierarchy.ruby_system.Directory_Controller.I.Fetch |     1226131     49.99%     49.99% |     1226456     50.01%    100.00% (Unspecified)
board.cache_hierarchy.ruby_system.Directory_Controller.I.Fetch::total      2452587                       (Unspecified)
board.cache_hierarchy.ruby_system.Directory_Controller.I.DMA_READ |         821     50.62%     50.62% |         801     49.38%    100.00% (Unspecified)
board.cache_hierarchy.ruby_system.Directory_Controller.I.DMA_READ::total         1622                       (Unspecified)
board.cache_hierarchy.ruby_system.Directory_Controller.I.DMA_WRITE |          64     50.00%     50.00% |          64     50.00%    100.00% (Unspecified)
board.cache_hierarchy.ruby_system.Directory_Controller.I.DMA_WRITE::total          128                       (Unspecified)
board.cache_hierarchy.ruby_system.Directory_Controller.ID.Memory_Data |         821     50.62%     50.62% |         801     49.38%    100.00% (Unspecified)
board.cache_hierarchy.ruby_system.Directory_Controller.ID.Memory_Data::total         1622                       (Unspecified)
board.cache_hierarchy.ruby_system.Directory_Controller.ID_W.Memory_Ack |          64     50.00%     50.00% |          64     50.00%    100.00% (Unspecified)
board.cache_hierarchy.ruby_system.Directory_Controller.ID_W.Memory_Ack::total          128                       (Unspecified)
board.cache_hierarchy.ruby_system.Directory_Controller.M.Data |     1002059     49.99%     49.99% |     1002537     50.01%    100.00% (Unspecified)
board.cache_hierarchy.ruby_system.Directory_Controller.M.Data::total      2004596                       (Unspecified)
board.cache_hierarchy.ruby_system.Directory_Controller.M.DMA_READ |        1171     50.26%     50.26% |        1159     49.74%    100.00% (Unspecified)
board.cache_hierarchy.ruby_system.Directory_Controller.M.DMA_READ::total         2330                       (Unspecified)
board.cache_hierarchy.ruby_system.Directory_Controller.M.CleanReplacement |      222901     50.02%     50.02% |      222760     49.98%    100.00% (Unspecified)
board.cache_hierarchy.ruby_system.Directory_Controller.M.CleanReplacement::total       445661                       (Unspecified)
board.cache_hierarchy.ruby_system.Directory_Controller.IM.Memory_Data |     1226131     49.99%     49.99% |     1226456     50.01%    100.00% (Unspecified)
board.cache_hierarchy.ruby_system.Directory_Controller.IM.Memory_Data::total      2452587                       (Unspecified)
board.cache_hierarchy.ruby_system.Directory_Controller.MI.Memory_Ack |     1002059     49.99%     49.99% |     1002537     50.01%    100.00% (Unspecified)
board.cache_hierarchy.ruby_system.Directory_Controller.MI.Memory_Ack::total      2004596                       (Unspecified)
board.cache_hierarchy.ruby_system.Directory_Controller.M_DRD.Data |        1171     50.26%     50.26% |        1159     49.74%    100.00% (Unspecified)
board.cache_hierarchy.ruby_system.Directory_Controller.M_DRD.Data::total         2330                       (Unspecified)
board.cache_hierarchy.ruby_system.Directory_Controller.M_DRDI.Memory_Ack |        1171     50.26%     50.26% |        1159     49.74%    100.00% (Unspecified)
board.cache_hierarchy.ruby_system.Directory_Controller.M_DRDI.Memory_Ack::total         2330                       (Unspecified)
board.cache_hierarchy.ruby_system.DMA_Controller.ReadRequest |        3952    100.00%    100.00% |           0      0.00%    100.00% (Unspecified)
board.cache_hierarchy.ruby_system.DMA_Controller.ReadRequest::total         3952                       (Unspecified)
board.cache_hierarchy.ruby_system.DMA_Controller.WriteRequest |         128    100.00%    100.00% |           0      0.00%    100.00% (Unspecified)
board.cache_hierarchy.ruby_system.DMA_Controller.WriteRequest::total          128                       (Unspecified)
board.cache_hierarchy.ruby_system.DMA_Controller.Data |        3952    100.00%    100.00% |           0      0.00%    100.00% (Unspecified)
board.cache_hierarchy.ruby_system.DMA_Controller.Data::total         3952                       (Unspecified)
board.cache_hierarchy.ruby_system.DMA_Controller.Ack |         128    100.00%    100.00% |           0      0.00%    100.00% (Unspecified)
board.cache_hierarchy.ruby_system.DMA_Controller.Ack::total          128                       (Unspecified)
board.cache_hierarchy.ruby_system.DMA_Controller.READY.ReadRequest |        3952    100.00%    100.00% |           0      0.00%    100.00% (Unspecified)
board.cache_hierarchy.ruby_system.DMA_Controller.READY.ReadRequest::total         3952                       (Unspecified)
board.cache_hierarchy.ruby_system.DMA_Controller.READY.WriteRequest |         128    100.00%    100.00% |           0      0.00%    100.00% (Unspecified)
board.cache_hierarchy.ruby_system.DMA_Controller.READY.WriteRequest::total          128                       (Unspecified)
board.cache_hierarchy.ruby_system.DMA_Controller.BUSY_RD.Data |        3952    100.00%    100.00% |           0      0.00%    100.00% (Unspecified)
board.cache_hierarchy.ruby_system.DMA_Controller.BUSY_RD.Data::total         3952                       (Unspecified)
board.cache_hierarchy.ruby_system.DMA_Controller.BUSY_WR.Ack |         128    100.00%    100.00% |           0      0.00%    100.00% (Unspecified)
board.cache_hierarchy.ruby_system.DMA_Controller.BUSY_WR.Ack::total          128                       (Unspecified)
board.cache_hierarchy.ruby_system.L1Cache_Controller.Load |   266546306      0.00%      0.00% |18446744071835238400    100.00%    100.00% (Unspecified)
board.cache_hierarchy.ruby_system.L1Cache_Controller.Load::total 18446744072101785600                       (Unspecified)
board.cache_hierarchy.ruby_system.L1Cache_Controller.Ifetch |  1450049853     45.46%     45.46% |  1739368163     54.54%    100.00% (Unspecified)
board.cache_hierarchy.ruby_system.L1Cache_Controller.Ifetch::total   3189418016                       (Unspecified)
board.cache_hierarchy.ruby_system.L1Cache_Controller.Store |   104054829     12.73%     12.73% |   713420408     87.27%    100.00% (Unspecified)
board.cache_hierarchy.ruby_system.L1Cache_Controller.Store::total    817475237                       (Unspecified)
board.cache_hierarchy.ruby_system.L1Cache_Controller.Inv |       20889     30.22%     30.22% |       48234     69.78%    100.00% (Unspecified)
board.cache_hierarchy.ruby_system.L1Cache_Controller.Inv::total        69123                       (Unspecified)
board.cache_hierarchy.ruby_system.L1Cache_Controller.L1_Replacement |   146319814     11.93%     11.93% |  1080082688     88.07%    100.00% (Unspecified)
board.cache_hierarchy.ruby_system.L1Cache_Controller.L1_Replacement::total   1226402502                       (Unspecified)
board.cache_hierarchy.ruby_system.L1Cache_Controller.Fwd_GETX |          41     62.12%     62.12% |          25     37.88%    100.00% (Unspecified)
board.cache_hierarchy.ruby_system.L1Cache_Controller.Fwd_GETX::total           66                       (Unspecified)
board.cache_hierarchy.ruby_system.L1Cache_Controller.Fwd_GETS |       14465     41.93%     41.93% |       20032     58.07%    100.00% (Unspecified)
board.cache_hierarchy.ruby_system.L1Cache_Controller.Fwd_GETS::total        34497                       (Unspecified)
board.cache_hierarchy.ruby_system.L1Cache_Controller.Data |       34121     99.86%     99.86% |          48      0.14%    100.00% (Unspecified)
board.cache_hierarchy.ruby_system.L1Cache_Controller.Data::total        34169                       (Unspecified)
board.cache_hierarchy.ruby_system.L1Cache_Controller.Data_Exclusive |    64516744      9.77%      9.77% |   595711348     90.23%    100.00% (Unspecified)
board.cache_hierarchy.ruby_system.L1Cache_Controller.Data_Exclusive::total    660228092                       (Unspecified)
board.cache_hierarchy.ruby_system.L1Cache_Controller.DataS_fromL1 |       20032     58.07%     58.07% |       14465     41.93%    100.00% (Unspecified)
board.cache_hierarchy.ruby_system.L1Cache_Controller.DataS_fromL1::total        34497                       (Unspecified)
board.cache_hierarchy.ruby_system.L1Cache_Controller.Data_all_Acks |    81748940     14.44%     14.44% |   484356892     85.56%    100.00% (Unspecified)
board.cache_hierarchy.ruby_system.L1Cache_Controller.Data_all_Acks::total    566105832                       (Unspecified)
board.cache_hierarchy.ruby_system.L1Cache_Controller.Ack |          76     52.78%     52.78% |          68     47.22%    100.00% (Unspecified)
board.cache_hierarchy.ruby_system.L1Cache_Controller.Ack::total          144                       (Unspecified)
board.cache_hierarchy.ruby_system.L1Cache_Controller.Ack_all |       34197     99.66%     99.66% |         116      0.34%    100.00% (Unspecified)
board.cache_hierarchy.ruby_system.L1Cache_Controller.Ack_all::total        34313                       (Unspecified)
board.cache_hierarchy.ruby_system.L1Cache_Controller.WB_Ack |    71621843      9.97%      9.97% |   646756303     90.03%    100.00% (Unspecified)
board.cache_hierarchy.ruby_system.L1Cache_Controller.WB_Ack::total    718378146                       (Unspecified)
board.cache_hierarchy.ruby_system.L1Cache_Controller.NP.Load |    66576289      9.97%      9.97% |   601235928     90.03%    100.00% (Unspecified)
board.cache_hierarchy.ruby_system.L1Cache_Controller.NP.Load::total    667812217                       (Unspecified)
board.cache_hierarchy.ruby_system.L1Cache_Controller.NP.Ifetch |    72624345     14.51%     14.51% |   427781906     85.49%    100.00% (Unspecified)
board.cache_hierarchy.ruby_system.L1Cache_Controller.NP.Ifetch::total    500406251                       (Unspecified)
board.cache_hierarchy.ruby_system.L1Cache_Controller.NP.Store |     7119180     12.24%     12.24% |    51064854     87.76%    100.00% (Unspecified)
board.cache_hierarchy.ruby_system.L1Cache_Controller.NP.Store::total     58184034                       (Unspecified)
board.cache_hierarchy.ruby_system.L1Cache_Controller.NP.Inv |       20860     30.22%     30.22% |       48167     69.78%    100.00% (Unspecified)
board.cache_hierarchy.ruby_system.L1Cache_Controller.NP.Inv::total        69027                       (Unspecified)
board.cache_hierarchy.ruby_system.L1Cache_Controller.I.Load |          16     20.78%     20.78% |          61     79.22%    100.00% (Unspecified)
board.cache_hierarchy.ruby_system.L1Cache_Controller.I.Load::total           77                       (Unspecified)
board.cache_hierarchy.ruby_system.L1Cache_Controller.I.Store |           6    100.00%    100.00% |           0      0.00%    100.00% (Unspecified)
board.cache_hierarchy.ruby_system.L1Cache_Controller.I.Store::total            6                       (Unspecified)
board.cache_hierarchy.ruby_system.L1Cache_Controller.I.L1_Replacement |          47     63.51%     63.51% |          27     36.49%    100.00% (Unspecified)
board.cache_hierarchy.ruby_system.L1Cache_Controller.I.L1_Replacement::total           74                       (Unspecified)
board.cache_hierarchy.ruby_system.L1Cache_Controller.S.Load |      664600     28.50%     28.50% |     1666941     71.50%    100.00% (Unspecified)
board.cache_hierarchy.ruby_system.L1Cache_Controller.S.Load::total      2331541                       (Unspecified)
board.cache_hierarchy.ruby_system.L1Cache_Controller.S.Ifetch |  1377425508     51.22%     51.22% |  1311586257     48.78%    100.00% (Unspecified)
board.cache_hierarchy.ruby_system.L1Cache_Controller.S.Ifetch::total   2689011765                       (Unspecified)
board.cache_hierarchy.ruby_system.L1Cache_Controller.S.Store |          77     51.68%     51.68% |          72     48.32%    100.00% (Unspecified)
board.cache_hierarchy.ruby_system.L1Cache_Controller.S.Store::total          149                       (Unspecified)
board.cache_hierarchy.ruby_system.L1Cache_Controller.S.Inv |          28     30.77%     30.77% |          63     69.23%    100.00% (Unspecified)
board.cache_hierarchy.ruby_system.L1Cache_Controller.S.Inv::total           91                       (Unspecified)
board.cache_hierarchy.ruby_system.L1Cache_Controller.S.L1_Replacement |    74697924     14.70%     14.70% |   433326358     85.30%    100.00% (Unspecified)
board.cache_hierarchy.ruby_system.L1Cache_Controller.S.L1_Replacement::total    508024282                       (Unspecified)
board.cache_hierarchy.ruby_system.L1Cache_Controller.E.Load |   125058749      7.99%      7.99% |  1439259465     92.01%    100.00% (Unspecified)
board.cache_hierarchy.ruby_system.L1Cache_Controller.E.Load::total   1564318214                       (Unspecified)
board.cache_hierarchy.ruby_system.L1Cache_Controller.E.Store |    17267756     15.73%     15.73% |    92536496     84.27%    100.00% (Unspecified)
board.cache_hierarchy.ruby_system.L1Cache_Controller.E.Store::total    109804252                       (Unspecified)
board.cache_hierarchy.ruby_system.L1Cache_Controller.E.L1_Replacement |    47234945      8.58%      8.58% |   503154958     91.42%    100.00% (Unspecified)
board.cache_hierarchy.ruby_system.L1Cache_Controller.E.L1_Replacement::total    550389903                       (Unspecified)
board.cache_hierarchy.ruby_system.L1Cache_Controller.E.Fwd_GETX |           9     40.91%     40.91% |          13     59.09%    100.00% (Unspecified)
board.cache_hierarchy.ruby_system.L1Cache_Controller.E.Fwd_GETX::total           22                       (Unspecified)
board.cache_hierarchy.ruby_system.L1Cache_Controller.E.Fwd_GETS |       14033     41.38%     41.38% |       19880     58.62%    100.00% (Unspecified)
board.cache_hierarchy.ruby_system.L1Cache_Controller.E.Fwd_GETS::total        33913                       (Unspecified)
board.cache_hierarchy.ruby_system.L1Cache_Controller.M.Load |    74246591     16.40%     16.40% |   378492082     83.60%    100.00% (Unspecified)
board.cache_hierarchy.ruby_system.L1Cache_Controller.M.Load::total    452738673                       (Unspecified)
board.cache_hierarchy.ruby_system.L1Cache_Controller.M.Store |    79667805     12.27%     12.27% |   569818929     87.73%    100.00% (Unspecified)
board.cache_hierarchy.ruby_system.L1Cache_Controller.M.Store::total    649486734                       (Unspecified)
board.cache_hierarchy.ruby_system.L1Cache_Controller.M.L1_Replacement |    24386898     14.52%     14.52% |   143601345     85.48%    100.00% (Unspecified)
board.cache_hierarchy.ruby_system.L1Cache_Controller.M.L1_Replacement::total    167988243                       (Unspecified)
board.cache_hierarchy.ruby_system.L1Cache_Controller.M.Fwd_GETX |          32     72.73%     72.73% |          12     27.27%    100.00% (Unspecified)
board.cache_hierarchy.ruby_system.L1Cache_Controller.M.Fwd_GETX::total           44                       (Unspecified)
board.cache_hierarchy.ruby_system.L1Cache_Controller.M.Fwd_GETS |          90     58.06%     58.06% |          65     41.94%    100.00% (Unspecified)
board.cache_hierarchy.ruby_system.L1Cache_Controller.M.Fwd_GETS::total          155                       (Unspecified)
board.cache_hierarchy.ruby_system.L1Cache_Controller.IS.Data_Exclusive |    64516744      9.77%      9.77% |   595711348     90.23%    100.00% (Unspecified)
board.cache_hierarchy.ruby_system.L1Cache_Controller.IS.Data_Exclusive::total    660228092                       (Unspecified)
board.cache_hierarchy.ruby_system.L1Cache_Controller.IS.DataS_fromL1 |       20032     58.07%     58.07% |       14465     41.93%    100.00% (Unspecified)
board.cache_hierarchy.ruby_system.L1Cache_Controller.IS.DataS_fromL1::total        34497                       (Unspecified)
board.cache_hierarchy.ruby_system.L1Cache_Controller.IS.Data_all_Acks |    74663874     14.70%     14.70% |   433292082     85.30%    100.00% (Unspecified)
board.cache_hierarchy.ruby_system.L1Cache_Controller.IS.Data_all_Acks::total    507955956                       (Unspecified)
board.cache_hierarchy.ruby_system.L1Cache_Controller.IM.Data |       34121     99.86%     99.86% |          48      0.14%    100.00% (Unspecified)
board.cache_hierarchy.ruby_system.L1Cache_Controller.IM.Data::total        34169                       (Unspecified)
board.cache_hierarchy.ruby_system.L1Cache_Controller.IM.Data_all_Acks |     7085066     12.18%     12.18% |    51064810     87.82%    100.00% (Unspecified)
board.cache_hierarchy.ruby_system.L1Cache_Controller.IM.Data_all_Acks::total     58149876                       (Unspecified)
board.cache_hierarchy.ruby_system.L1Cache_Controller.SM.Inv |           1     20.00%     20.00% |           4     80.00%    100.00% (Unspecified)
board.cache_hierarchy.ruby_system.L1Cache_Controller.SM.Inv::total            5                       (Unspecified)
board.cache_hierarchy.ruby_system.L1Cache_Controller.SM.Ack |          76     52.78%     52.78% |          68     47.22%    100.00% (Unspecified)
board.cache_hierarchy.ruby_system.L1Cache_Controller.SM.Ack::total          144                       (Unspecified)
board.cache_hierarchy.ruby_system.L1Cache_Controller.SM.Ack_all |       34197     99.66%     99.66% |         116      0.34%    100.00% (Unspecified)
board.cache_hierarchy.ruby_system.L1Cache_Controller.SM.Ack_all::total        34313                       (Unspecified)
board.cache_hierarchy.ruby_system.L1Cache_Controller.M_I.Load |          61     12.25%     12.25% |         437     87.75%    100.00% (Unspecified)
board.cache_hierarchy.ruby_system.L1Cache_Controller.M_I.Load::total          498                       (Unspecified)
board.cache_hierarchy.ruby_system.L1Cache_Controller.M_I.Store |           5      8.06%      8.06% |          57     91.94%    100.00% (Unspecified)
board.cache_hierarchy.ruby_system.L1Cache_Controller.M_I.Store::total           62                       (Unspecified)
board.cache_hierarchy.ruby_system.L1Cache_Controller.M_I.Fwd_GETS |         342     79.72%     79.72% |          87     20.28%    100.00% (Unspecified)
board.cache_hierarchy.ruby_system.L1Cache_Controller.M_I.Fwd_GETS::total          429                       (Unspecified)
board.cache_hierarchy.ruby_system.L1Cache_Controller.M_I.WB_Ack |    71621501      9.97%      9.97% |   646756216     90.03%    100.00% (Unspecified)
board.cache_hierarchy.ruby_system.L1Cache_Controller.M_I.WB_Ack::total    718377717                       (Unspecified)
board.cache_hierarchy.ruby_system.L1Cache_Controller.SINK_WB_ACK.WB_Ack |         342     79.72%     79.72% |          87     20.28%    100.00% (Unspecified)
board.cache_hierarchy.ruby_system.L1Cache_Controller.SINK_WB_ACK.WB_Ack::total          429                       (Unspecified)
board.cache_hierarchy.ruby_system.L2Cache_Controller.L1_GET_INSTR |   262558159     52.47%     52.47% |   237848092     47.53%    100.00% (Unspecified)
board.cache_hierarchy.ruby_system.L2Cache_Controller.L1_GET_INSTR::total    500406251                       (Unspecified)
board.cache_hierarchy.ruby_system.L2Cache_Controller.L1_GETS |   342787607     51.33%     51.33% |   325025584     48.67%    100.00% (Unspecified)
board.cache_hierarchy.ruby_system.L2Cache_Controller.L1_GETS::total    667813191                       (Unspecified)
board.cache_hierarchy.ruby_system.L2Cache_Controller.L1_GETX |    26648314     45.80%     45.80% |    31535742     54.20%    100.00% (Unspecified)
board.cache_hierarchy.ruby_system.L2Cache_Controller.L1_GETX::total     58184056                       (Unspecified)
board.cache_hierarchy.ruby_system.L2Cache_Controller.L1_UPGRADE |         124     71.68%     71.68% |          49     28.32%    100.00% (Unspecified)
board.cache_hierarchy.ruby_system.L2Cache_Controller.L1_UPGRADE::total          173                       (Unspecified)
board.cache_hierarchy.ruby_system.L2Cache_Controller.L1_PUTX |   365033155     50.81%     50.81% |   353345420     49.19%    100.00% (Unspecified)
board.cache_hierarchy.ruby_system.L2Cache_Controller.L1_PUTX::total    718378575                       (Unspecified)
board.cache_hierarchy.ruby_system.L2Cache_Controller.L2_Replacement |     1002059     49.99%     49.99% |     1002537     50.01%    100.00% (Unspecified)
board.cache_hierarchy.ruby_system.L2Cache_Controller.L2_Replacement::total      2004596                       (Unspecified)
board.cache_hierarchy.ruby_system.L2Cache_Controller.L2_Replacement_clean |      222901     50.02%     50.02% |      222760     49.98%    100.00% (Unspecified)
board.cache_hierarchy.ruby_system.L2Cache_Controller.L2_Replacement_clean::total       445661                       (Unspecified)
board.cache_hierarchy.ruby_system.L2Cache_Controller.Mem_Data |     1226131     49.99%     49.99% |     1226456     50.01%    100.00% (Unspecified)
board.cache_hierarchy.ruby_system.L2Cache_Controller.Mem_Data::total      2452587                       (Unspecified)
board.cache_hierarchy.ruby_system.L2Cache_Controller.Mem_Ack |     1226131     49.99%     49.99% |     1226456     50.01%    100.00% (Unspecified)
board.cache_hierarchy.ruby_system.L2Cache_Controller.Mem_Ack::total      2452587                       (Unspecified)
board.cache_hierarchy.ruby_system.L2Cache_Controller.WB_Data |         109     69.43%     69.43% |          48     30.57%    100.00% (Unspecified)
board.cache_hierarchy.ruby_system.L2Cache_Controller.WB_Data::total          157                       (Unspecified)
board.cache_hierarchy.ruby_system.L2Cache_Controller.WB_Data_clean |       34209     99.62%     99.62% |         131      0.38%    100.00% (Unspecified)
board.cache_hierarchy.ruby_system.L2Cache_Controller.WB_Data_clean::total        34340                       (Unspecified)
board.cache_hierarchy.ruby_system.L2Cache_Controller.Ack |        3672     49.69%     49.69% |        3718     50.31%    100.00% (Unspecified)
board.cache_hierarchy.ruby_system.L2Cache_Controller.Ack::total         7390                       (Unspecified)
board.cache_hierarchy.ruby_system.L2Cache_Controller.Ack_all |       13660     49.82%     49.82% |       13760     50.18%    100.00% (Unspecified)
board.cache_hierarchy.ruby_system.L2Cache_Controller.Ack_all::total        27420                       (Unspecified)
board.cache_hierarchy.ruby_system.L2Cache_Controller.Unblock |       34318     99.48%     99.48% |         179      0.52%    100.00% (Unspecified)
board.cache_hierarchy.ruby_system.L2Cache_Controller.Unblock::total        34497                       (Unspecified)
board.cache_hierarchy.ruby_system.L2Cache_Controller.Exclusive_Unblock |   365066682     50.82%     50.82% |   353345599     49.18%    100.00% (Unspecified)
board.cache_hierarchy.ruby_system.L2Cache_Controller.Exclusive_Unblock::total    718412281                       (Unspecified)
board.cache_hierarchy.ruby_system.L2Cache_Controller.MEM_Inv |        2342     50.26%     50.26% |        2318     49.74%    100.00% (Unspecified)
board.cache_hierarchy.ruby_system.L2Cache_Controller.MEM_Inv::total         4660                       (Unspecified)
board.cache_hierarchy.ruby_system.L2Cache_Controller.NP.L1_GET_INSTR |       13473     49.80%     49.80% |       13582     50.20%    100.00% (Unspecified)
board.cache_hierarchy.ruby_system.L2Cache_Controller.NP.L1_GET_INSTR::total        27055                       (Unspecified)
board.cache_hierarchy.ruby_system.L2Cache_Controller.NP.L1_GETS |      314591     50.03%     50.03% |      314199     49.97%    100.00% (Unspecified)
board.cache_hierarchy.ruby_system.L2Cache_Controller.NP.L1_GETS::total       628790                       (Unspecified)
board.cache_hierarchy.ruby_system.L2Cache_Controller.NP.L1_GETX |      898067     49.98%     49.98% |      898675     50.02%    100.00% (Unspecified)
board.cache_hierarchy.ruby_system.L2Cache_Controller.NP.L1_GETX::total      1796742                       (Unspecified)
board.cache_hierarchy.ruby_system.L2Cache_Controller.SS.L1_GET_INSTR |   262544546     52.47%     52.47% |   237834344     47.53%    100.00% (Unspecified)
board.cache_hierarchy.ruby_system.L2Cache_Controller.SS.L1_GET_INSTR::total    500378890                       (Unspecified)
board.cache_hierarchy.ruby_system.L2Cache_Controller.SS.L1_GETS |     4334074     57.41%     57.41% |     3215535     42.59%    100.00% (Unspecified)
board.cache_hierarchy.ruby_system.L2Cache_Controller.SS.L1_GETS::total      7549609                       (Unspecified)
board.cache_hierarchy.ruby_system.L2Cache_Controller.SS.L1_GETX |       34119     99.85%     99.85% |          50      0.15%    100.00% (Unspecified)
board.cache_hierarchy.ruby_system.L2Cache_Controller.SS.L1_GETX::total        34169                       (Unspecified)
board.cache_hierarchy.ruby_system.L2Cache_Controller.SS.L1_UPGRADE |         100     69.44%     69.44% |          44     30.56%    100.00% (Unspecified)
board.cache_hierarchy.ruby_system.L2Cache_Controller.SS.L1_UPGRADE::total          144                       (Unspecified)
board.cache_hierarchy.ruby_system.L2Cache_Controller.SS.L1_PUTX |         424     98.83%     98.83% |           5      1.17%    100.00% (Unspecified)
board.cache_hierarchy.ruby_system.L2Cache_Controller.SS.L1_PUTX::total          429                       (Unspecified)
board.cache_hierarchy.ruby_system.L2Cache_Controller.SS.L2_Replacement |           0      0.00%      0.00% |           1    100.00%    100.00% (Unspecified)
board.cache_hierarchy.ruby_system.L2Cache_Controller.SS.L2_Replacement::total            1                       (Unspecified)
board.cache_hierarchy.ruby_system.L2Cache_Controller.SS.L2_Replacement_clean |       13660     49.82%     49.82% |       13759     50.18%    100.00% (Unspecified)
board.cache_hierarchy.ruby_system.L2Cache_Controller.SS.L2_Replacement_clean::total        27419                       (Unspecified)
board.cache_hierarchy.ruby_system.L2Cache_Controller.M.L1_GET_INSTR |           9     39.13%     39.13% |          14     60.87%    100.00% (Unspecified)
board.cache_hierarchy.ruby_system.L2Cache_Controller.M.L1_GET_INSTR::total           23                       (Unspecified)
board.cache_hierarchy.ruby_system.L2Cache_Controller.M.L1_GETS |   338103718     51.26%     51.26% |   321495632     48.74%    100.00% (Unspecified)
board.cache_hierarchy.ruby_system.L2Cache_Controller.M.L1_GETS::total    659599350                       (Unspecified)
board.cache_hierarchy.ruby_system.L2Cache_Controller.M.L1_GETX |    25716063     45.63%     45.63% |    30637005     54.37%    100.00% (Unspecified)
board.cache_hierarchy.ruby_system.L2Cache_Controller.M.L1_GETX::total     56353068                       (Unspecified)
board.cache_hierarchy.ruby_system.L2Cache_Controller.M.L2_Replacement |     1002059     49.99%     49.99% |     1002536     50.01%    100.00% (Unspecified)
board.cache_hierarchy.ruby_system.L2Cache_Controller.M.L2_Replacement::total      2004595                       (Unspecified)
board.cache_hierarchy.ruby_system.L2Cache_Controller.M.L2_Replacement_clean |      209241     50.03%     50.03% |      209001     49.97%    100.00% (Unspecified)
board.cache_hierarchy.ruby_system.L2Cache_Controller.M.L2_Replacement_clean::total       418242                       (Unspecified)
board.cache_hierarchy.ruby_system.L2Cache_Controller.M.MEM_Inv |        1171     50.26%     50.26% |        1159     49.74%    100.00% (Unspecified)
board.cache_hierarchy.ruby_system.L2Cache_Controller.M.MEM_Inv::total         2330                       (Unspecified)
board.cache_hierarchy.ruby_system.L2Cache_Controller.MT.L1_GETS |       34318     99.48%     99.48% |         179      0.52%    100.00% (Unspecified)
board.cache_hierarchy.ruby_system.L2Cache_Controller.MT.L1_GETS::total        34497                       (Unspecified)
board.cache_hierarchy.ruby_system.L2Cache_Controller.MT.L1_GETX |          54     81.82%     81.82% |          12     18.18%    100.00% (Unspecified)
board.cache_hierarchy.ruby_system.L2Cache_Controller.MT.L1_GETX::total           66                       (Unspecified)
board.cache_hierarchy.ruby_system.L2Cache_Controller.MT.L1_PUTX |   365032307     50.81%     50.81% |   353345410     49.19%    100.00% (Unspecified)
board.cache_hierarchy.ruby_system.L2Cache_Controller.MT.L1_PUTX::total    718377717                       (Unspecified)
board.cache_hierarchy.ruby_system.L2Cache_Controller.M_I.Mem_Ack |     1226131     49.99%     49.99% |     1226456     50.01%    100.00% (Unspecified)
board.cache_hierarchy.ruby_system.L2Cache_Controller.M_I.Mem_Ack::total      2452587                       (Unspecified)
board.cache_hierarchy.ruby_system.L2Cache_Controller.M_I.MEM_Inv |        1171     50.26%     50.26% |        1159     49.74%    100.00% (Unspecified)
board.cache_hierarchy.ruby_system.L2Cache_Controller.M_I.MEM_Inv::total         2330                       (Unspecified)
board.cache_hierarchy.ruby_system.L2Cache_Controller.I_I.Ack |        3672     49.70%     49.70% |        3717     50.30%    100.00% (Unspecified)
board.cache_hierarchy.ruby_system.L2Cache_Controller.I_I.Ack::total         7389                       (Unspecified)
board.cache_hierarchy.ruby_system.L2Cache_Controller.I_I.Ack_all |       13660     49.82%     49.82% |       13759     50.18%    100.00% (Unspecified)
board.cache_hierarchy.ruby_system.L2Cache_Controller.I_I.Ack_all::total        27419                       (Unspecified)
board.cache_hierarchy.ruby_system.L2Cache_Controller.S_I.Ack |           0      0.00%      0.00% |           1    100.00%    100.00% (Unspecified)
board.cache_hierarchy.ruby_system.L2Cache_Controller.S_I.Ack::total            1                       (Unspecified)
board.cache_hierarchy.ruby_system.L2Cache_Controller.S_I.Ack_all |           0      0.00%      0.00% |           1    100.00%    100.00% (Unspecified)
board.cache_hierarchy.ruby_system.L2Cache_Controller.S_I.Ack_all::total            1                       (Unspecified)
board.cache_hierarchy.ruby_system.L2Cache_Controller.ISS.L1_GETS |          30     62.50%     62.50% |          18     37.50%    100.00% (Unspecified)
board.cache_hierarchy.ruby_system.L2Cache_Controller.ISS.L1_GETS::total           48                       (Unspecified)
board.cache_hierarchy.ruby_system.L2Cache_Controller.ISS.Mem_Data |      314561     50.03%     50.03% |      314181     49.97%    100.00% (Unspecified)
board.cache_hierarchy.ruby_system.L2Cache_Controller.ISS.Mem_Data::total       628742                       (Unspecified)
board.cache_hierarchy.ruby_system.L2Cache_Controller.IS.L1_GET_INSTR |         131     46.29%     46.29% |         152     53.71%    100.00% (Unspecified)
board.cache_hierarchy.ruby_system.L2Cache_Controller.IS.L1_GET_INSTR::total          283                       (Unspecified)
board.cache_hierarchy.ruby_system.L2Cache_Controller.IS.Mem_Data |       13503     49.82%     49.82% |       13600     50.18%    100.00% (Unspecified)
board.cache_hierarchy.ruby_system.L2Cache_Controller.IS.Mem_Data::total        27103                       (Unspecified)
board.cache_hierarchy.ruby_system.L2Cache_Controller.IM.Mem_Data |      898067     49.98%     49.98% |      898675     50.02%    100.00% (Unspecified)
board.cache_hierarchy.ruby_system.L2Cache_Controller.IM.Mem_Data::total      1796742                       (Unspecified)
board.cache_hierarchy.ruby_system.L2Cache_Controller.SS_MB.L1_GETS |          25     96.15%     96.15% |           1      3.85%    100.00% (Unspecified)
board.cache_hierarchy.ruby_system.L2Cache_Controller.SS_MB.L1_GETS::total           26                       (Unspecified)
board.cache_hierarchy.ruby_system.L2Cache_Controller.SS_MB.L1_UPGRADE |           1     20.00%     20.00% |           4     80.00%    100.00% (Unspecified)
board.cache_hierarchy.ruby_system.L2Cache_Controller.SS_MB.L1_UPGRADE::total            5                       (Unspecified)
board.cache_hierarchy.ruby_system.L2Cache_Controller.SS_MB.Exclusive_Unblock |       34219     99.73%     99.73% |          94      0.27%    100.00% (Unspecified)
board.cache_hierarchy.ruby_system.L2Cache_Controller.SS_MB.Exclusive_Unblock::total        34313                       (Unspecified)
board.cache_hierarchy.ruby_system.L2Cache_Controller.MT_MB.L1_GETS |         851     97.70%     97.70% |          20      2.30%    100.00% (Unspecified)
board.cache_hierarchy.ruby_system.L2Cache_Controller.MT_MB.L1_GETS::total          871                       (Unspecified)
board.cache_hierarchy.ruby_system.L2Cache_Controller.MT_MB.L1_GETX |          11    100.00%    100.00% |           0      0.00%    100.00% (Unspecified)
board.cache_hierarchy.ruby_system.L2Cache_Controller.MT_MB.L1_GETX::total           11                       (Unspecified)
board.cache_hierarchy.ruby_system.L2Cache_Controller.MT_MB.Exclusive_Unblock |   365032463     50.81%     50.81% |   353345505     49.19%    100.00% (Unspecified)
board.cache_hierarchy.ruby_system.L2Cache_Controller.MT_MB.Exclusive_Unblock::total    718377968                       (Unspecified)
board.cache_hierarchy.ruby_system.L2Cache_Controller.MT_IIB.L1_PUTX |         424     98.83%     98.83% |           5      1.17%    100.00% (Unspecified)
board.cache_hierarchy.ruby_system.L2Cache_Controller.MT_IIB.L1_PUTX::total          429                       (Unspecified)
board.cache_hierarchy.ruby_system.L2Cache_Controller.MT_IIB.WB_Data |         109     69.43%     69.43% |          48     30.57%    100.00% (Unspecified)
board.cache_hierarchy.ruby_system.L2Cache_Controller.MT_IIB.WB_Data::total          157                       (Unspecified)
board.cache_hierarchy.ruby_system.L2Cache_Controller.MT_IIB.WB_Data_clean |       34209     99.62%     99.62% |         131      0.38%    100.00% (Unspecified)
board.cache_hierarchy.ruby_system.L2Cache_Controller.MT_IIB.WB_Data_clean::total        34340                       (Unspecified)
board.cache_hierarchy.ruby_system.L2Cache_Controller.MT_SB.L1_UPGRADE |          23     95.83%     95.83% |           1      4.17%    100.00% (Unspecified)
board.cache_hierarchy.ruby_system.L2Cache_Controller.MT_SB.L1_UPGRADE::total           24                       (Unspecified)
board.cache_hierarchy.ruby_system.L2Cache_Controller.MT_SB.Unblock |       34318     99.48%     99.48% |         179      0.52%    100.00% (Unspecified)
board.cache_hierarchy.ruby_system.L2Cache_Controller.MT_SB.Unblock::total        34497                       (Unspecified)
board.cache_hierarchy.ruby_system.RequestType.LD.latency_hist_seqr::bucket_size          256                       (Unspecified)
board.cache_hierarchy.ruby_system.RequestType.LD.latency_hist_seqr::max_bucket         2559                       (Unspecified)
board.cache_hierarchy.ruby_system.RequestType.LD.latency_hist_seqr::samples   2687200722                       (Unspecified)
board.cache_hierarchy.ruby_system.RequestType.LD.latency_hist_seqr::mean     4.119167                       (Unspecified)
board.cache_hierarchy.ruby_system.RequestType.LD.latency_hist_seqr::gmean     1.904787                       (Unspecified)
board.cache_hierarchy.ruby_system.RequestType.LD.latency_hist_seqr::stdev     6.509155                       (Unspecified)
board.cache_hierarchy.ruby_system.RequestType.LD.latency_hist_seqr |  2687155232    100.00%    100.00% |       18112      0.00%    100.00% |       16560      0.00%    100.00% |        4482      0.00%    100.00% |        6082      0.00%    100.00% |          29      0.00%    100.00% |         155      0.00%    100.00% |          65      0.00%    100.00% |           5      0.00%    100.00% |           0      0.00%    100.00% (Unspecified)
board.cache_hierarchy.ruby_system.RequestType.LD.latency_hist_seqr::total   2687200722                       (Unspecified)
board.cache_hierarchy.ruby_system.RequestType.LD.hit_latency_hist_seqr::bucket_size            1                       (Unspecified)
board.cache_hierarchy.ruby_system.RequestType.LD.hit_latency_hist_seqr::max_bucket            9                       (Unspecified)
board.cache_hierarchy.ruby_system.RequestType.LD.hit_latency_hist_seqr::samples   2019388428                       (Unspecified)
board.cache_hierarchy.ruby_system.RequestType.LD.hit_latency_hist_seqr::mean            1                       (Unspecified)
board.cache_hierarchy.ruby_system.RequestType.LD.hit_latency_hist_seqr::gmean            1                       (Unspecified)
board.cache_hierarchy.ruby_system.RequestType.LD.hit_latency_hist_seqr |           0      0.00%      0.00% |  2019388428    100.00%    100.00% |           0      0.00%    100.00% |           0      0.00%    100.00% |           0      0.00%    100.00% |           0      0.00%    100.00% |           0      0.00%    100.00% |           0      0.00%    100.00% |           0      0.00%    100.00% |           0      0.00%    100.00% (Unspecified)
board.cache_hierarchy.ruby_system.RequestType.LD.hit_latency_hist_seqr::total   2019388428                       (Unspecified)
board.cache_hierarchy.ruby_system.RequestType.LD.miss_latency_hist_seqr::bucket_size          256                       (Unspecified)
board.cache_hierarchy.ruby_system.RequestType.LD.miss_latency_hist_seqr::max_bucket         2559                       (Unspecified)
board.cache_hierarchy.ruby_system.RequestType.LD.miss_latency_hist_seqr::samples    667812294                       (Unspecified)
board.cache_hierarchy.ruby_system.RequestType.LD.miss_latency_hist_seqr::mean    13.551172                       (Unspecified)
board.cache_hierarchy.ruby_system.RequestType.LD.miss_latency_hist_seqr::gmean    13.368127                       (Unspecified)
board.cache_hierarchy.ruby_system.RequestType.LD.miss_latency_hist_seqr::stdev     7.218431                       (Unspecified)
board.cache_hierarchy.ruby_system.RequestType.LD.miss_latency_hist_seqr |   667766804     99.99%     99.99% |       18112      0.00%    100.00% |       16560      0.00%    100.00% |        4482      0.00%    100.00% |        6082      0.00%    100.00% |          29      0.00%    100.00% |         155      0.00%    100.00% |          65      0.00%    100.00% |           5      0.00%    100.00% |           0      0.00%    100.00% (Unspecified)
board.cache_hierarchy.ruby_system.RequestType.LD.miss_latency_hist_seqr::total    667812294                       (Unspecified)
board.cache_hierarchy.ruby_system.RequestType.ST.latency_hist_seqr::bucket_size          256                       (Unspecified)
board.cache_hierarchy.ruby_system.RequestType.ST.latency_hist_seqr::max_bucket         2559                       (Unspecified)
board.cache_hierarchy.ruby_system.RequestType.ST.latency_hist_seqr::samples    811380710                       (Unspecified)
board.cache_hierarchy.ruby_system.RequestType.ST.latency_hist_seqr::mean     2.220972                       (Unspecified)
board.cache_hierarchy.ruby_system.RequestType.ST.latency_hist_seqr::gmean     1.201153                       (Unspecified)
board.cache_hierarchy.ruby_system.RequestType.ST.latency_hist_seqr::stdev    10.991285                       (Unspecified)
board.cache_hierarchy.ruby_system.RequestType.ST.latency_hist_seqr |   811271301     99.99%     99.99% |       21047      0.00%     99.99% |       67039      0.01%    100.00% |        5463      0.00%    100.00% |       15030      0.00%    100.00% |          26      0.00%    100.00% |         410      0.00%    100.00% |         340      0.00%    100.00% |          47      0.00%    100.00% |           7      0.00%    100.00% (Unspecified)
board.cache_hierarchy.ruby_system.RequestType.ST.latency_hist_seqr::total    811380710                       (Unspecified)
board.cache_hierarchy.ruby_system.RequestType.ST.hit_latency_hist_seqr::bucket_size            1                       (Unspecified)
board.cache_hierarchy.ruby_system.RequestType.ST.hit_latency_hist_seqr::max_bucket            9                       (Unspecified)
board.cache_hierarchy.ruby_system.RequestType.ST.hit_latency_hist_seqr::samples    756016742                       (Unspecified)
board.cache_hierarchy.ruby_system.RequestType.ST.hit_latency_hist_seqr::mean            1                       (Unspecified)
board.cache_hierarchy.ruby_system.RequestType.ST.hit_latency_hist_seqr::gmean            1                       (Unspecified)
board.cache_hierarchy.ruby_system.RequestType.ST.hit_latency_hist_seqr |           0      0.00%      0.00% |   756016742    100.00%    100.00% |           0      0.00%    100.00% |           0      0.00%    100.00% |           0      0.00%    100.00% |           0      0.00%    100.00% |           0      0.00%    100.00% |           0      0.00%    100.00% |           0      0.00%    100.00% |           0      0.00%    100.00% (Unspecified)
board.cache_hierarchy.ruby_system.RequestType.ST.hit_latency_hist_seqr::total    756016742                       (Unspecified)
board.cache_hierarchy.ruby_system.RequestType.ST.miss_latency_hist_seqr::bucket_size          256                       (Unspecified)
board.cache_hierarchy.ruby_system.RequestType.ST.miss_latency_hist_seqr::max_bucket         2559                       (Unspecified)
board.cache_hierarchy.ruby_system.RequestType.ST.miss_latency_hist_seqr::samples     55363968                       (Unspecified)
board.cache_hierarchy.ruby_system.RequestType.ST.miss_latency_hist_seqr::mean    18.893828                       (Unspecified)
board.cache_hierarchy.ruby_system.RequestType.ST.miss_latency_hist_seqr::gmean    14.673787                       (Unspecified)
board.cache_hierarchy.ruby_system.RequestType.ST.miss_latency_hist_seqr::stdev    38.368641                       (Unspecified)
board.cache_hierarchy.ruby_system.RequestType.ST.miss_latency_hist_seqr |    55254559     99.80%     99.80% |       21047      0.04%     99.84% |       67039      0.12%     99.96% |        5463      0.01%     99.97% |       15030      0.03%    100.00% |          26      0.00%    100.00% |         410      0.00%    100.00% |         340      0.00%    100.00% |          47      0.00%    100.00% |           7      0.00%    100.00% (Unspecified)
board.cache_hierarchy.ruby_system.RequestType.ST.miss_latency_hist_seqr::total     55363968                       (Unspecified)
board.cache_hierarchy.ruby_system.RequestType.IFETCH.latency_hist_seqr::bucket_size          256                       (Unspecified)
board.cache_hierarchy.ruby_system.RequestType.IFETCH.latency_hist_seqr::max_bucket         2559                       (Unspecified)
board.cache_hierarchy.ruby_system.RequestType.IFETCH.latency_hist_seqr::samples  16074319904                       (Unspecified)
board.cache_hierarchy.ruby_system.RequestType.IFETCH.latency_hist_seqr::mean     1.373919                       (Unspecified)
board.cache_hierarchy.ruby_system.RequestType.IFETCH.latency_hist_seqr::gmean     1.083132                       (Unspecified)
board.cache_hierarchy.ruby_system.RequestType.IFETCH.latency_hist_seqr::stdev     2.105651                       (Unspecified)
board.cache_hierarchy.ruby_system.RequestType.IFETCH.latency_hist_seqr | 16074317990    100.00%    100.00% |        1356      0.00%    100.00% |         205      0.00%    100.00% |          74      0.00%    100.00% |         267      0.00%    100.00% |           7      0.00%    100.00% |           5      0.00%    100.00% |           0      0.00%    100.00% |           0      0.00%    100.00% |           0      0.00%    100.00% (Unspecified)
board.cache_hierarchy.ruby_system.RequestType.IFETCH.latency_hist_seqr::total  16074319904                       (Unspecified)
board.cache_hierarchy.ruby_system.RequestType.IFETCH.hit_latency_hist_seqr::bucket_size            1                       (Unspecified)
board.cache_hierarchy.ruby_system.RequestType.IFETCH.hit_latency_hist_seqr::max_bucket            9                       (Unspecified)
board.cache_hierarchy.ruby_system.RequestType.IFETCH.hit_latency_hist_seqr::samples  15573913653                       (Unspecified)
board.cache_hierarchy.ruby_system.RequestType.IFETCH.hit_latency_hist_seqr::mean            1                       (Unspecified)
board.cache_hierarchy.ruby_system.RequestType.IFETCH.hit_latency_hist_seqr::gmean            1                       (Unspecified)
board.cache_hierarchy.ruby_system.RequestType.IFETCH.hit_latency_hist_seqr |           0      0.00%      0.00% | 15573913653    100.00%    100.00% |           0      0.00%    100.00% |           0      0.00%    100.00% |           0      0.00%    100.00% |           0      0.00%    100.00% |           0      0.00%    100.00% |           0      0.00%    100.00% |           0      0.00%    100.00% |           0      0.00%    100.00% (Unspecified)
board.cache_hierarchy.ruby_system.RequestType.IFETCH.hit_latency_hist_seqr::total  15573913653                       (Unspecified)
board.cache_hierarchy.ruby_system.RequestType.IFETCH.miss_latency_hist_seqr::bucket_size          256                       (Unspecified)
board.cache_hierarchy.ruby_system.RequestType.IFETCH.miss_latency_hist_seqr::max_bucket         2559                       (Unspecified)
board.cache_hierarchy.ruby_system.RequestType.IFETCH.miss_latency_hist_seqr::samples    500406251                       (Unspecified)
board.cache_hierarchy.ruby_system.RequestType.IFETCH.miss_latency_hist_seqr::mean    13.011234                       (Unspecified)
board.cache_hierarchy.ruby_system.RequestType.IFETCH.miss_latency_hist_seqr::gmean    13.003203                       (Unspecified)
board.cache_hierarchy.ruby_system.RequestType.IFETCH.miss_latency_hist_seqr::stdev     1.626433                       (Unspecified)
board.cache_hierarchy.ruby_system.RequestType.IFETCH.miss_latency_hist_seqr |   500404337    100.00%    100.00% |        1356      0.00%    100.00% |         205      0.00%    100.00% |          74      0.00%    100.00% |         267      0.00%    100.00% |           7      0.00%    100.00% |           5      0.00%    100.00% |           0      0.00%    100.00% |           0      0.00%    100.00% |           0      0.00%    100.00% (Unspecified)
board.cache_hierarchy.ruby_system.RequestType.IFETCH.miss_latency_hist_seqr::total    500406251                       (Unspecified)
board.cache_hierarchy.ruby_system.RequestType.RMW_Read.latency_hist_seqr::bucket_size          256                       (Unspecified)
board.cache_hierarchy.ruby_system.RequestType.RMW_Read.latency_hist_seqr::max_bucket         2559                       (Unspecified)
board.cache_hierarchy.ruby_system.RequestType.RMW_Read.latency_hist_seqr::samples      4189331                       (Unspecified)
board.cache_hierarchy.ruby_system.RequestType.RMW_Read.latency_hist_seqr::mean     8.547430                       (Unspecified)
board.cache_hierarchy.ruby_system.RequestType.RMW_Read.latency_hist_seqr::gmean     4.548546                       (Unspecified)
board.cache_hierarchy.ruby_system.RequestType.RMW_Read.latency_hist_seqr::stdev     9.331387                       (Unspecified)
board.cache_hierarchy.ruby_system.RequestType.RMW_Read.latency_hist_seqr |     4189084     99.99%     99.99% |         128      0.00%    100.00% |          67      0.00%    100.00% |          12      0.00%    100.00% |          38      0.00%    100.00% |           0      0.00%    100.00% |           2      0.00%    100.00% |           0      0.00%    100.00% |           0      0.00%    100.00% |           0      0.00%    100.00% (Unspecified)
board.cache_hierarchy.ruby_system.RequestType.RMW_Read.latency_hist_seqr::total      4189331                       (Unspecified)
board.cache_hierarchy.ruby_system.RequestType.RMW_Read.hit_latency_hist_seqr::bucket_size            1                       (Unspecified)
board.cache_hierarchy.ruby_system.RequestType.RMW_Read.hit_latency_hist_seqr::max_bucket            9                       (Unspecified)
board.cache_hierarchy.ruby_system.RequestType.RMW_Read.hit_latency_hist_seqr::samples      1768696                       (Unspecified)
board.cache_hierarchy.ruby_system.RequestType.RMW_Read.hit_latency_hist_seqr::mean            1                       (Unspecified)
board.cache_hierarchy.ruby_system.RequestType.RMW_Read.hit_latency_hist_seqr::gmean            1                       (Unspecified)
board.cache_hierarchy.ruby_system.RequestType.RMW_Read.hit_latency_hist_seqr |           0      0.00%      0.00% |     1768696    100.00%    100.00% |           0      0.00%    100.00% |           0      0.00%    100.00% |           0      0.00%    100.00% |           0      0.00%    100.00% |           0      0.00%    100.00% |           0      0.00%    100.00% |           0      0.00%    100.00% |           0      0.00%    100.00% (Unspecified)
board.cache_hierarchy.ruby_system.RequestType.RMW_Read.hit_latency_hist_seqr::total      1768696                       (Unspecified)
board.cache_hierarchy.ruby_system.RequestType.RMW_Read.miss_latency_hist_seqr::bucket_size          256                       (Unspecified)
board.cache_hierarchy.ruby_system.RequestType.RMW_Read.miss_latency_hist_seqr::max_bucket         2559                       (Unspecified)
board.cache_hierarchy.ruby_system.RequestType.RMW_Read.miss_latency_hist_seqr::samples      2420635                       (Unspecified)
board.cache_hierarchy.ruby_system.RequestType.RMW_Read.miss_latency_hist_seqr::mean    14.062143                       (Unspecified)
board.cache_hierarchy.ruby_system.RequestType.RMW_Read.miss_latency_hist_seqr::gmean    13.758252                       (Unspecified)
board.cache_hierarchy.ruby_system.RequestType.RMW_Read.miss_latency_hist_seqr::stdev     8.869279                       (Unspecified)
board.cache_hierarchy.ruby_system.RequestType.RMW_Read.miss_latency_hist_seqr |     2420388     99.99%     99.99% |         128      0.01%    100.00% |          67      0.00%    100.00% |          12      0.00%    100.00% |          38      0.00%    100.00% |           0      0.00%    100.00% |           2      0.00%    100.00% |           0      0.00%    100.00% |           0      0.00%    100.00% |           0      0.00%    100.00% (Unspecified)
board.cache_hierarchy.ruby_system.RequestType.RMW_Read.miss_latency_hist_seqr::total      2420635                       (Unspecified)
board.cache_hierarchy.ruby_system.RequestType.Locked_RMW_Read.latency_hist_seqr::bucket_size          256                       (Unspecified)
board.cache_hierarchy.ruby_system.RequestType.Locked_RMW_Read.latency_hist_seqr::max_bucket         2559                       (Unspecified)
board.cache_hierarchy.ruby_system.RequestType.Locked_RMW_Read.latency_hist_seqr::samples       952567                       (Unspecified)
board.cache_hierarchy.ruby_system.RequestType.Locked_RMW_Read.latency_hist_seqr::mean     6.579837                       (Unspecified)
board.cache_hierarchy.ruby_system.RequestType.Locked_RMW_Read.latency_hist_seqr::gmean     2.997149                       (Unspecified)
board.cache_hierarchy.ruby_system.RequestType.Locked_RMW_Read.latency_hist_seqr::stdev    11.063654                       (Unspecified)
board.cache_hierarchy.ruby_system.RequestType.Locked_RMW_Read.latency_hist_seqr |      952466     99.99%     99.99% |          67      0.01%    100.00% |          15      0.00%    100.00% |           6      0.00%    100.00% |          12      0.00%    100.00% |           0      0.00%    100.00% |           1      0.00%    100.00% |           0      0.00%    100.00% |           0      0.00%    100.00% |           0      0.00%    100.00% (Unspecified)
board.cache_hierarchy.ruby_system.RequestType.Locked_RMW_Read.latency_hist_seqr::total       952567                       (Unspecified)
board.cache_hierarchy.ruby_system.RequestType.Locked_RMW_Read.hit_latency_hist_seqr::bucket_size            1                       (Unspecified)
board.cache_hierarchy.ruby_system.RequestType.Locked_RMW_Read.hit_latency_hist_seqr::max_bucket            9                       (Unspecified)
board.cache_hierarchy.ruby_system.RequestType.Locked_RMW_Read.hit_latency_hist_seqr::samples       552981                       (Unspecified)
board.cache_hierarchy.ruby_system.RequestType.Locked_RMW_Read.hit_latency_hist_seqr::mean            1                       (Unspecified)
board.cache_hierarchy.ruby_system.RequestType.Locked_RMW_Read.hit_latency_hist_seqr::gmean            1                       (Unspecified)
board.cache_hierarchy.ruby_system.RequestType.Locked_RMW_Read.hit_latency_hist_seqr |           0      0.00%      0.00% |      552981    100.00%    100.00% |           0      0.00%    100.00% |           0      0.00%    100.00% |           0      0.00%    100.00% |           0      0.00%    100.00% |           0      0.00%    100.00% |           0      0.00%    100.00% |           0      0.00%    100.00% |           0      0.00%    100.00% (Unspecified)
board.cache_hierarchy.ruby_system.RequestType.Locked_RMW_Read.hit_latency_hist_seqr::total       552981                       (Unspecified)
board.cache_hierarchy.ruby_system.RequestType.Locked_RMW_Read.miss_latency_hist_seqr::bucket_size          256                       (Unspecified)
board.cache_hierarchy.ruby_system.RequestType.Locked_RMW_Read.miss_latency_hist_seqr::max_bucket         2559                       (Unspecified)
board.cache_hierarchy.ruby_system.RequestType.Locked_RMW_Read.miss_latency_hist_seqr::samples       399586                       (Unspecified)
board.cache_hierarchy.ruby_system.RequestType.Locked_RMW_Read.miss_latency_hist_seqr::mean    14.301690                       (Unspecified)
board.cache_hierarchy.ruby_system.RequestType.Locked_RMW_Read.miss_latency_hist_seqr::gmean    13.690454                       (Unspecified)
board.cache_hierarchy.ruby_system.RequestType.Locked_RMW_Read.miss_latency_hist_seqr::stdev    13.750802                       (Unspecified)
board.cache_hierarchy.ruby_system.RequestType.Locked_RMW_Read.miss_latency_hist_seqr |      399485     99.97%     99.97% |          67      0.02%     99.99% |          15      0.00%    100.00% |           6      0.00%    100.00% |          12      0.00%    100.00% |           0      0.00%    100.00% |           1      0.00%    100.00% |           0      0.00%    100.00% |           0      0.00%    100.00% |           0      0.00%    100.00% (Unspecified)
board.cache_hierarchy.ruby_system.RequestType.Locked_RMW_Read.miss_latency_hist_seqr::total       399586                       (Unspecified)
board.cache_hierarchy.ruby_system.RequestType.Locked_RMW_Write.latency_hist_seqr::bucket_size            1                       (Unspecified)
board.cache_hierarchy.ruby_system.RequestType.Locked_RMW_Write.latency_hist_seqr::max_bucket            9                       (Unspecified)
board.cache_hierarchy.ruby_system.RequestType.Locked_RMW_Write.latency_hist_seqr::samples       952567                       (Unspecified)
board.cache_hierarchy.ruby_system.RequestType.Locked_RMW_Write.latency_hist_seqr::mean            1                       (Unspecified)
board.cache_hierarchy.ruby_system.RequestType.Locked_RMW_Write.latency_hist_seqr::gmean            1                       (Unspecified)
board.cache_hierarchy.ruby_system.RequestType.Locked_RMW_Write.latency_hist_seqr |           0      0.00%      0.00% |      952567    100.00%    100.00% |           0      0.00%    100.00% |           0      0.00%    100.00% |           0      0.00%    100.00% |           0      0.00%    100.00% |           0      0.00%    100.00% |           0      0.00%    100.00% |           0      0.00%    100.00% |           0      0.00%    100.00% (Unspecified)
board.cache_hierarchy.ruby_system.RequestType.Locked_RMW_Write.latency_hist_seqr::total       952567                       (Unspecified)
board.cache_hierarchy.ruby_system.RequestType.Locked_RMW_Write.hit_latency_hist_seqr::bucket_size            1                       (Unspecified)
board.cache_hierarchy.ruby_system.RequestType.Locked_RMW_Write.hit_latency_hist_seqr::max_bucket            9                       (Unspecified)
board.cache_hierarchy.ruby_system.RequestType.Locked_RMW_Write.hit_latency_hist_seqr::samples       952567                       (Unspecified)
board.cache_hierarchy.ruby_system.RequestType.Locked_RMW_Write.hit_latency_hist_seqr::mean            1                       (Unspecified)
board.cache_hierarchy.ruby_system.RequestType.Locked_RMW_Write.hit_latency_hist_seqr::gmean            1                       (Unspecified)
board.cache_hierarchy.ruby_system.RequestType.Locked_RMW_Write.hit_latency_hist_seqr |           0      0.00%      0.00% |      952567    100.00%    100.00% |           0      0.00%    100.00% |           0      0.00%    100.00% |           0      0.00%    100.00% |           0      0.00%    100.00% |           0      0.00%    100.00% |           0      0.00%    100.00% |           0      0.00%    100.00% |           0      0.00%    100.00% (Unspecified)
board.cache_hierarchy.ruby_system.RequestType.Locked_RMW_Write.hit_latency_hist_seqr::total       952567                       (Unspecified)
board.cache_hierarchy.ruby_system.directory_controllers0.power_state.pwrStateResidencyTicks::UNDEFINED 254950936289236                       # Cumulative time (in ticks) in various power states (Tick)
board.cache_hierarchy.ruby_system.directory_controllers0.requestToDir.m_msg_count      1228187                       # Number of messages passed the buffer (Count)
board.cache_hierarchy.ruby_system.directory_controllers0.requestToDir.m_buf_msgs     0.000023                       # Average number of messages in buffer ((Count/Tick))
board.cache_hierarchy.ruby_system.directory_controllers0.requestToMemory.m_msg_count      2230246                       # Number of messages passed the buffer (Count)
board.cache_hierarchy.ruby_system.directory_controllers0.requestToMemory.m_buf_msgs     0.000042                       # Average number of messages in buffer ((Count/Tick))
board.cache_hierarchy.ruby_system.directory_controllers0.requestToMemory.m_stall_time        21978                       # Total number of ticks messages were stalled in this buffer (Tick)
board.cache_hierarchy.ruby_system.directory_controllers0.requestToMemory.m_avg_stall_time     0.009855                       # Average stall ticks per message ((Tick/Count))
board.cache_hierarchy.ruby_system.directory_controllers0.responseFromDir.m_msg_count      2455489                       # Number of messages passed the buffer (Count)
board.cache_hierarchy.ruby_system.directory_controllers0.responseFromDir.m_buf_msgs     0.000046                       # Average number of messages in buffer ((Count/Tick))
board.cache_hierarchy.ruby_system.directory_controllers0.responseFromMemory.m_msg_count      2230246                       # Number of messages passed the buffer (Count)
board.cache_hierarchy.ruby_system.directory_controllers0.responseFromMemory.m_buf_msgs     0.000071                       # Average number of messages in buffer ((Count/Tick))
board.cache_hierarchy.ruby_system.directory_controllers0.responseToDir.m_msg_count      1226131                       # Number of messages passed the buffer (Count)
board.cache_hierarchy.ruby_system.directory_controllers0.responseToDir.m_buf_msgs     0.000023                       # Average number of messages in buffer ((Count/Tick))
board.cache_hierarchy.ruby_system.directory_controllers1.power_state.pwrStateResidencyTicks::UNDEFINED 254950936289236                       # Cumulative time (in ticks) in various power states (Tick)
board.cache_hierarchy.ruby_system.directory_controllers1.requestToDir.m_msg_count      1228480                       # Number of messages passed the buffer (Count)
board.cache_hierarchy.ruby_system.directory_controllers1.requestToDir.m_buf_msgs     0.000023                       # Average number of messages in buffer ((Count/Tick))
board.cache_hierarchy.ruby_system.directory_controllers1.requestToMemory.m_msg_count      2231017                       # Number of messages passed the buffer (Count)
board.cache_hierarchy.ruby_system.directory_controllers1.requestToMemory.m_buf_msgs     0.000042                       # Average number of messages in buffer ((Count/Tick))
board.cache_hierarchy.ruby_system.directory_controllers1.requestToMemory.m_stall_time        16983                       # Total number of ticks messages were stalled in this buffer (Tick)
board.cache_hierarchy.ruby_system.directory_controllers1.requestToMemory.m_avg_stall_time     0.007612                       # Average stall ticks per message ((Tick/Count))
board.cache_hierarchy.ruby_system.directory_controllers1.responseFromDir.m_msg_count      2456095                       # Number of messages passed the buffer (Count)
board.cache_hierarchy.ruby_system.directory_controllers1.responseFromDir.m_buf_msgs     0.000046                       # Average number of messages in buffer ((Count/Tick))
board.cache_hierarchy.ruby_system.directory_controllers1.responseFromMemory.m_msg_count      2231017                       # Number of messages passed the buffer (Count)
board.cache_hierarchy.ruby_system.directory_controllers1.responseFromMemory.m_buf_msgs     0.000071                       # Average number of messages in buffer ((Count/Tick))
board.cache_hierarchy.ruby_system.directory_controllers1.responseToDir.m_msg_count      1226456                       # Number of messages passed the buffer (Count)
board.cache_hierarchy.ruby_system.directory_controllers1.responseToDir.m_buf_msgs     0.000023                       # Average number of messages in buffer ((Count/Tick))
board.cache_hierarchy.ruby_system.dma_controllers0.dma_sequencer.power_state.pwrStateResidencyTicks::UNDEFINED 254950936289236                       # Cumulative time (in ticks) in various power states (Tick)
board.cache_hierarchy.ruby_system.dma_controllers0.mandatoryQueue.m_msg_count         4080                       # Number of messages passed the buffer (Count)
board.cache_hierarchy.ruby_system.dma_controllers0.mandatoryQueue.m_buf_msgs     0.000000                       # Average number of messages in buffer ((Count/Tick))
board.cache_hierarchy.ruby_system.dma_controllers0.power_state.pwrStateResidencyTicks::UNDEFINED 254950936289236                       # Cumulative time (in ticks) in various power states (Tick)
board.cache_hierarchy.ruby_system.dma_controllers0.requestToDir.m_msg_count         4080                       # Number of messages passed the buffer (Count)
board.cache_hierarchy.ruby_system.dma_controllers0.requestToDir.m_buf_msgs     0.000000                       # Average number of messages in buffer ((Count/Tick))
board.cache_hierarchy.ruby_system.dma_controllers0.responseFromDir.m_msg_count         4080                       # Number of messages passed the buffer (Count)
board.cache_hierarchy.ruby_system.dma_controllers0.responseFromDir.m_buf_msgs     0.000000                       # Average number of messages in buffer ((Count/Tick))
board.cache_hierarchy.ruby_system.dma_controllers1.dma_sequencer.power_state.pwrStateResidencyTicks::UNDEFINED 254950936289236                       # Cumulative time (in ticks) in various power states (Tick)
board.cache_hierarchy.ruby_system.dma_controllers1.power_state.pwrStateResidencyTicks::UNDEFINED 254950936289236                       # Cumulative time (in ticks) in various power states (Tick)
board.cache_hierarchy.ruby_system.l1_controllers0.fullyBusyCycles         1167                       # cycles for which number of transistions == max transitions (Unspecified)
board.cache_hierarchy.ruby_system.l1_controllers0.delayHistogram::samples    218011348                       # delay_histogram (Unspecified)
board.cache_hierarchy.ruby_system.l1_controllers0.delayHistogram::mean     0.001626                       # delay_histogram (Unspecified)
board.cache_hierarchy.ruby_system.l1_controllers0.delayHistogram::stdev     0.099470                       # delay_histogram (Unspecified)
board.cache_hierarchy.ruby_system.l1_controllers0.delayHistogram::0-1    217948409     99.97%     99.97% # delay_histogram (Unspecified)
board.cache_hierarchy.ruby_system.l1_controllers0.delayHistogram::2-3          286      0.00%     99.97% # delay_histogram (Unspecified)
board.cache_hierarchy.ruby_system.l1_controllers0.delayHistogram::4-5        25636      0.01%     99.98% # delay_histogram (Unspecified)
board.cache_hierarchy.ruby_system.l1_controllers0.delayHistogram::6-7        22766      0.01%     99.99% # delay_histogram (Unspecified)
board.cache_hierarchy.ruby_system.l1_controllers0.delayHistogram::8-9        14021      0.01%    100.00% # delay_histogram (Unspecified)
board.cache_hierarchy.ruby_system.l1_controllers0.delayHistogram::10-11          199      0.00%    100.00% # delay_histogram (Unspecified)
board.cache_hierarchy.ruby_system.l1_controllers0.delayHistogram::12-13            2      0.00%    100.00% # delay_histogram (Unspecified)
board.cache_hierarchy.ruby_system.l1_controllers0.delayHistogram::16-17            3      0.00%    100.00% # delay_histogram (Unspecified)
board.cache_hierarchy.ruby_system.l1_controllers0.delayHistogram::18-19           26      0.00%    100.00% # delay_histogram (Unspecified)
board.cache_hierarchy.ruby_system.l1_controllers0.delayHistogram::total    218011348                       # delay_histogram (Unspecified)
board.cache_hierarchy.ruby_system.l1_controllers0.L1Dcache.m_demand_hits    296905501                       # Number of cache demand hits (Unspecified)
board.cache_hierarchy.ruby_system.l1_controllers0.L1Dcache.m_demand_misses     73695568                       # Number of cache demand misses (Unspecified)
board.cache_hierarchy.ruby_system.l1_controllers0.L1Dcache.m_demand_accesses    370601069                       # Number of cache demand accesses (Unspecified)
board.cache_hierarchy.ruby_system.l1_controllers0.L1Icache.m_demand_hits   1377425508                       # Number of cache demand hits (Unspecified)
board.cache_hierarchy.ruby_system.l1_controllers0.L1Icache.m_demand_misses     72624345                       # Number of cache demand misses (Unspecified)
board.cache_hierarchy.ruby_system.l1_controllers0.L1Icache.m_demand_accesses   1450049853                       # Number of cache demand accesses (Unspecified)
board.cache_hierarchy.ruby_system.l1_controllers0.mandatoryQueue.m_msg_count   1820650922                       # Number of messages passed the buffer (Count)
board.cache_hierarchy.ruby_system.l1_controllers0.mandatoryQueue.m_buf_msgs     0.034202                       # Average number of messages in buffer ((Count/Tick))
board.cache_hierarchy.ruby_system.l1_controllers0.mandatoryQueue.m_stall_time        55944                       # Total number of ticks messages were stalled in this buffer (Tick)
[...]
board.processor.switch1.core.commitStats0.committedInstType::IntDiv      1179272      0.01%     43.85% # Class of committed instruction. (Count)
board.processor.switch1.core.commitStats0.committedInstType::FloatAdd   1307622171      8.87%     52.72% # Class of committed instruction. (Count)
board.processor.switch1.core.commitStats0.committedInstType::FloatCmp            0      0.00%     52.72% # Class of committed instruction. (Count)
board.processor.switch1.core.commitStats0.committedInstType::FloatCvt        61328      0.00%     52.72% # Class of committed instruction. (Count)
board.processor.switch1.core.commitStats0.committedInstType::FloatMult            0      0.00%     52.72% # Class of committed instruction. (Count)
board.processor.switch1.core.commitStats0.committedInstType::FloatMultAcc            0      0.00%     52.72% # Class of committed instruction. (Count)
board.processor.switch1.core.commitStats0.committedInstType::FloatDiv            0      0.00%     52.72% # Class of committed instruction. (Count)
board.processor.switch1.core.commitStats0.committedInstType::FloatMisc            0      0.00%     52.72% # Class of committed instruction. (Count)
board.processor.switch1.core.commitStats0.committedInstType::FloatSqrt            0      0.00%     52.72% # Class of committed instruction. (Count)
board.processor.switch1.core.commitStats0.committedInstType::SimdAdd         5766      0.00%     52.72% # Class of committed instruction. (Count)
board.processor.switch1.core.commitStats0.committedInstType::SimdAddAcc            0      0.00%     52.72% # Class of committed instruction. (Count)
board.processor.switch1.core.commitStats0.committedInstType::SimdAlu     56949982      0.39%     53.11% # Class of committed instruction. (Count)
board.processor.switch1.core.commitStats0.committedInstType::SimdCmp        79596      0.00%     53.11% # Class of committed instruction. (Count)
board.processor.switch1.core.commitStats0.committedInstType::SimdCvt       372942      0.00%     53.11% # Class of committed instruction. (Count)
board.processor.switch1.core.commitStats0.committedInstType::SimdMisc       517835      0.00%     53.12% # Class of committed instruction. (Count)
board.processor.switch1.core.commitStats0.committedInstType::SimdMult            0      0.00%     53.12% # Class of committed instruction. (Count)
board.processor.switch1.core.commitStats0.committedInstType::SimdMultAcc            0      0.00%     53.12% # Class of committed instruction. (Count)
board.processor.switch1.core.commitStats0.committedInstType::SimdMatMultAcc            0      0.00%     53.12% # Class of committed instruction. (Count)
board.processor.switch1.core.commitStats0.committedInstType::SimdShift         2054      0.00%     53.12% # Class of committed instruction. (Count)
board.processor.switch1.core.commitStats0.committedInstType::SimdShiftAcc            0      0.00%     53.12% # Class of committed instruction. (Count)
board.processor.switch1.core.commitStats0.committedInstType::SimdDiv            0      0.00%     53.12% # Class of committed instruction. (Count)
board.processor.switch1.core.commitStats0.committedInstType::SimdSqrt            0      0.00%     53.12% # Class of committed instruction. (Count)
board.processor.switch1.core.commitStats0.committedInstType::SimdFloatAdd   1931930597     13.11%     66.23% # Class of committed instruction. (Count)
board.processor.switch1.core.commitStats0.committedInstType::SimdFloatAlu            0      0.00%     66.23% # Class of committed instruction. (Count)
board.processor.switch1.core.commitStats0.committedInstType::SimdFloatCmp            0      0.00%     66.23% # Class of committed instruction. (Count)
board.processor.switch1.core.commitStats0.committedInstType::SimdFloatCvt    235610517      1.60%     67.83% # Class of committed instruction. (Count)
board.processor.switch1.core.commitStats0.committedInstType::SimdFloatDiv            0      0.00%     67.83% # Class of committed instruction. (Count)
board.processor.switch1.core.commitStats0.committedInstType::SimdFloatMisc            0      0.00%     67.83% # Class of committed instruction. (Count)
board.processor.switch1.core.commitStats0.committedInstType::SimdFloatMult   1607961039     10.91%     78.74% # Class of committed instruction. (Count)
board.processor.switch1.core.commitStats0.committedInstType::SimdFloatMultAcc            0      0.00%     78.74% # Class of committed instruction. (Count)
board.processor.switch1.core.commitStats0.committedInstType::SimdFloatMatMultAcc            0      0.00%     78.74% # Class of committed instruction. (Count)
board.processor.switch1.core.commitStats0.committedInstType::SimdFloatSqrt            0      0.00%     78.74% # Class of committed instruction. (Count)
board.processor.switch1.core.commitStats0.committedInstType::SimdReduceAdd            0      0.00%     78.74% # Class of committed instruction. (Count)
board.processor.switch1.core.commitStats0.committedInstType::SimdReduceAlu            0      0.00%     78.74% # Class of committed instruction. (Count)
board.processor.switch1.core.commitStats0.committedInstType::SimdReduceCmp            0      0.00%     78.74% # Class of committed instruction. (Count)
board.processor.switch1.core.commitStats0.committedInstType::SimdFloatReduceAdd            0      0.00%     78.74% # Class of committed instruction. (Count)
board.processor.switch1.core.commitStats0.committedInstType::SimdFloatReduceCmp            0      0.00%     78.74% # Class of committed instruction. (Count)
board.processor.switch1.core.commitStats0.committedInstType::SimdAes            0      0.00%     78.74% # Class of committed instruction. (Count)
board.processor.switch1.core.commitStats0.committedInstType::SimdAesMix            0      0.00%     78.74% # Class of committed instruction. (Count)
board.processor.switch1.core.commitStats0.committedInstType::SimdSha1Hash            0      0.00%     78.74% # Class of committed instruction. (Count)
board.processor.switch1.core.commitStats0.committedInstType::SimdSha1Hash2            0      0.00%     78.74% # Class of committed instruction. (Count)
board.processor.switch1.core.commitStats0.committedInstType::SimdSha256Hash            0      0.00%     78.74% # Class of committed instruction. (Count)
board.processor.switch1.core.commitStats0.committedInstType::SimdSha256Hash2            0      0.00%     78.74% # Class of committed instruction. (Count)
board.processor.switch1.core.commitStats0.committedInstType::SimdShaSigma2            0      0.00%     78.74% # Class of committed instruction. (Count)
board.processor.switch1.core.commitStats0.committedInstType::SimdShaSigma3            0      0.00%     78.74% # Class of committed instruction. (Count)
board.processor.switch1.core.commitStats0.committedInstType::SimdPredAlu            0      0.00%     78.74% # Class of committed instruction. (Count)
board.processor.switch1.core.commitStats0.committedInstType::Matrix            0      0.00%     78.74% # Class of committed instruction. (Count)
board.processor.switch1.core.commitStats0.committedInstType::MatrixMov            0      0.00%     78.74% # Class of committed instruction. (Count)
board.processor.switch1.core.commitStats0.committedInstType::MatrixOP            0      0.00%     78.74% # Class of committed instruction. (Count)
board.processor.switch1.core.commitStats0.committedInstType::MemRead    618215553      4.19%     82.93% # Class of committed instruction. (Count)
board.processor.switch1.core.commitStats0.committedInstType::MemWrite    302270502      2.05%     84.98% # Class of committed instruction. (Count)
board.processor.switch1.core.commitStats0.committedInstType::FloatMemRead   1793215671     12.17%     97.15% # Class of committed instruction. (Count)
board.processor.switch1.core.commitStats0.committedInstType::FloatMemWrite    420260505      2.85%    100.00% # Class of committed instruction. (Count)
board.processor.switch1.core.commitStats0.committedInstType::IprAccess            0      0.00%    100.00% # Class of committed instruction. (Count)
board.processor.switch1.core.commitStats0.committedInstType::InstPrefetch            0      0.00%    100.00% # Class of committed instruction. (Count)
board.processor.switch1.core.commitStats0.committedInstType::SimdUnitStrideLoad            0      0.00%    100.00% # Class of committed instruction. (Count)
board.processor.switch1.core.commitStats0.committedInstType::SimdUnitStrideStore            0      0.00%    100.00% # Class of committed instruction. (Count)
board.processor.switch1.core.commitStats0.committedInstType::SimdUnitStrideMaskLoad            0      0.00%    100.00% # Class of committed instruction. (Count)
board.processor.switch1.core.commitStats0.committedInstType::SimdUnitStrideMaskStore            0      0.00%    100.00% # Class of committed instruction. (Count)
board.processor.switch1.core.commitStats0.committedInstType::SimdStridedLoad            0      0.00%    100.00% # Class of committed instruction. (Count)
board.processor.switch1.core.commitStats0.committedInstType::SimdStridedStore            0      0.00%    100.00% # Class of committed instruction. (Count)
board.processor.switch1.core.commitStats0.committedInstType::SimdIndexedLoad            0      0.00%    100.00% # Class of committed instruction. (Count)
board.processor.switch1.core.commitStats0.committedInstType::SimdIndexedStore            0      0.00%    100.00% # Class of committed instruction. (Count)
board.processor.switch1.core.commitStats0.committedInstType::SimdWholeRegisterLoad            0      0.00%    100.00% # Class of committed instruction. (Count)
board.processor.switch1.core.commitStats0.committedInstType::SimdWholeRegisterStore            0      0.00%    100.00% # Class of committed instruction. (Count)
board.processor.switch1.core.commitStats0.committedInstType::SimdUnitStrideFaultOnlyFirstLoad            0      0.00%    100.00% # Class of committed instruction. (Count)
board.processor.switch1.core.commitStats0.committedInstType::SimdUnitStrideSegmentedLoad            0      0.00%    100.00% # Class of committed instruction. (Count)
board.processor.switch1.core.commitStats0.committedInstType::SimdUnitStrideSegmentedStore            0      0.00%    100.00% # Class of committed instruction. (Count)
board.processor.switch1.core.commitStats0.committedInstType::SimdExt            0      0.00%    100.00% # Class of committed instruction. (Count)
board.processor.switch1.core.commitStats0.committedInstType::SimdFloatExt            0      0.00%    100.00% # Class of committed instruction. (Count)
board.processor.switch1.core.commitStats0.committedInstType::SimdConfig            0      0.00%    100.00% # Class of committed instruction. (Count)
board.processor.switch1.core.commitStats0.committedInstType::total  14737971878                       # Class of committed instruction. (Count)
board.processor.switch1.core.commitStats0.committedControl::IsControl    391216112                       # Class of control type instructions committed (Count)
board.processor.switch1.core.commitStats0.committedControl::IsDirectControl    386313704                       # Class of control type instructions committed (Count)
board.processor.switch1.core.commitStats0.committedControl::IsIndirectControl      4781013                       # Class of control type instructions committed (Count)
board.processor.switch1.core.commitStats0.committedControl::IsCondControl    333532724                       # Class of control type instructions committed (Count)
board.processor.switch1.core.commitStats0.committedControl::IsUncondControl     57681377                       # Class of control type instructions committed (Count)
board.processor.switch1.core.commitStats0.committedControl::IsCall      4271657                       # Class of control type instructions committed (Count)
board.processor.switch1.core.commitStats0.committedControl::IsReturn      4171554                       # Class of control type instructions committed (Count)
board.processor.switch1.core.exec_context.thread_0.numMatAluAccesses            0                       # Number of matrix alu accesses (Count)
board.processor.switch1.core.exec_context.thread_0.numCallsReturns      8443211                       # Number of times a function call or return occured (Count)
board.processor.switch1.core.exec_context.thread_0.numMatInsts            0                       # Number of matrix instructions (Count)
board.processor.switch1.core.exec_context.thread_0.numIdleCycles 4263260369.683663                       # Number of idle cycles (Cycle)
board.processor.switch1.core.exec_context.thread_0.numBusyCycles 49049880456.316338                       # Number of busy cycles (Cycle)
board.processor.switch1.core.exec_context.thread_0.notIdleFraction     0.920034                       # Percentage of non-idle cycles (Ratio)
board.processor.switch1.core.exec_context.thread_0.idleFraction     0.079966                       # Percentage of idle cycles (Ratio)
board.processor.switch1.core.executeStats0.numInsts            0                       # Number of executed instructions (Count)
board.processor.switch1.core.executeStats0.numNop            0                       # Number of nop insts executed (Count)
board.processor.switch1.core.executeStats0.numBranches            0                       # Number of branches executed (Count)
board.processor.switch1.core.executeStats0.numLoadInsts            0                       # Number of load instructions executed (Count)
board.processor.switch1.core.executeStats0.numStoreInsts   3133962231                       # Number of stores executed (Count)
board.processor.switch1.core.executeStats0.instRate            0                       # Inst execution rate ((Count/Cycle))
board.processor.switch1.core.executeStats0.numFpAluAccesses   9046231991                       # Number of float alu accesses (Count)
board.processor.switch1.core.executeStats0.numFpRegReads  15010529858                       # Number of times the floating registers were read (Count)
board.processor.switch1.core.executeStats0.numFpRegWrites   8417575025                       # Number of times the floating registers were written (Count)
board.processor.switch1.core.executeStats0.numIntAluAccesses   7881668355                       # Number of integer alu accesses (Count)
board.processor.switch1.core.executeStats0.numIntRegReads  10613959765                       # Number of times the integer registers were read (Count)
board.processor.switch1.core.executeStats0.numIntRegWrites   4728478881                       # Number of times the integer registers were written (Count)
board.processor.switch1.core.executeStats0.numMemRefs   3133962231                       # Number of memory refs (Count)
board.processor.switch1.core.executeStats0.numMiscRegReads   4028436792                       # Number of times the Misc registers were read (Count)
board.processor.switch1.core.executeStats0.numMiscRegWrites      1843345                       # Number of times the Misc registers were written (Count)
board.processor.switch1.core.executeStats0.numVecAluAccesses            0                       # Number of vector alu accesses (Count)
board.processor.switch1.core.executeStats0.numDiscardedOps            0                       # Number of ops (including micro ops) which were discarded before commit (Count)
board.processor.switch1.core.fetchStats0.numInsts  10241799150                       # Number of instructions fetched (thread level) (Count)
board.processor.switch1.core.fetchStats0.numOps  14737971878                       # Number of ops (including micro ops) fetched (thread level) (Count)
board.processor.switch1.core.fetchStats0.fetchRate     0.192106                       # Number of inst fetches per cycle ((Count/Cycle))
board.processor.switch1.core.fetchStats0.numBranches    391216112                       # Number of branches fetched (Count)
board.processor.switch1.core.fetchStats0.branchRate     0.007338                       # Number of branch fetches per cycle (Ratio)
board.processor.switch1.core.fetchStats0.numFetchSuspends            0                       # Number of times Execute suspended instruction fetching (Count)
board.processor.switch1.core.mmu.dtb.rdAccesses   2413783068                       # TLB accesses on read requests (Count)
board.processor.switch1.core.mmu.dtb.wrAccesses    722874029                       # TLB accesses on write requests (Count)
board.processor.switch1.core.mmu.dtb.rdMisses      2322971                       # TLB misses on read requests (Count)
board.processor.switch1.core.mmu.dtb.wrMisses       351789                       # TLB misses on write requests (Count)
board.processor.switch1.core.mmu.dtb.walker.power_state.pwrStateResidencyTicks::UNDEFINED 254950936289236                       # Cumulative time (in ticks) in various power states (Tick)
board.processor.switch1.core.mmu.itb.rdAccesses            0                       # TLB accesses on read requests (Count)
board.processor.switch1.core.mmu.itb.wrAccesses  14624837214                       # TLB accesses on write requests (Count)
board.processor.switch1.core.mmu.itb.rdMisses            0                       # TLB misses on read requests (Count)
board.processor.switch1.core.mmu.itb.wrMisses       567163                       # TLB misses on write requests (Count)
board.processor.switch1.core.mmu.itb.walker.power_state.pwrStateResidencyTicks::UNDEFINED 254950936289236                       # Cumulative time (in ticks) in various power states (Tick)
board.processor.switch1.core.power_state.numTransitions         2872                       # Number of power state transitions (Count)
board.processor.switch1.core.power_state.ticksClkGated::samples         1437                       # Distribution of time spent in the clock gated state (Tick)
board.processor.switch1.core.power_state.ticksClkGated::mean 988439291.068894                       # Distribution of time spent in the clock gated state (Tick)
board.processor.switch1.core.power_state.ticksClkGated::stdev 52577496.799541                       # Distribution of time spent in the clock gated state (Tick)
board.processor.switch1.core.power_state.ticksClkGated::1000-5e+10         1437    100.00%    100.00% # Distribution of time spent in the clock gated state (Tick)
board.processor.switch1.core.power_state.ticksClkGated::min_value    125792415                       # Distribution of time spent in the clock gated state (Tick)
board.processor.switch1.core.power_state.ticksClkGated::max_value    996815187                       # Distribution of time spent in the clock gated state (Tick)
board.processor.switch1.core.power_state.ticksClkGated::total         1437                       # Distribution of time spent in the clock gated state (Tick)
board.processor.switch1.core.power_state.pwrStateResidencyTicks::ON 16333227455299                       # Cumulative time (in ticks) in various power states (Tick)
board.processor.switch1.core.power_state.pwrStateResidencyTicks::CLK_GATED 1420387261266                       # Cumulative time (in ticks) in various power states (Tick)
board.processor.switch1.core.thread_0.numInsts            0                       # Number of Instructions committed (Count)
board.processor.switch1.core.thread_0.numOps            0                       # Number of Ops committed (Count)
board.processor.switch1.core.thread_0.numMemRefs            0                       # Number of Memory References (Count)
board.workload.inst.arm                             0                       # number of arm instructions executed (Count)
board.workload.inst.quiesce                         0                       # number of quiesce instructions executed (Count)

---------- End Simulation Statistics   ----------
